! Generated by BlenderFDS 5.0.0 on Blender 2.80 (sub 75)
! Scene: <TEST_CUBO>  Date: <Sat, 14 Sep 2019, 21:12:15>  File: <C:\Users\rupol\OneDrive\Desktop\cube.blend>
&HEAD CHID='TEST_CUBO'
      TITLE='Caso test del cubo' /
&TIME T_END=3600.0 /

! --- Boundary conditions from Blender Materials
&SURF ID='Material'
      RGB=204,204,204 TRANSPARENCY=1.00 /

! --- Geometric namelists from Blender Collection <Collection>
&OBST ID='Cube' FYI='TEST CUBO' SURF_ID='INERT' XB=-1.000000,1.000000,-1.000000,1.000000,-1.000000,1.000000 /

&TAIL /