! Generated by BlenderFDS 5.0.0 on Blender 2.80 (sub 75)
! File: <...8x/verification/carpark/Blender_Input_Files/carpark.blend>
! Blender Scene: <Scene>
! Date: <Tue, 26 Nov 2019, 20:04:47>
&HEAD CHID='Scene' /
&TIME T_END=1.0 /

! --- Boundary conditions from Blender Materials
&SURF ID='Material'
      RGB=204,204,204
      TRANSPARENCY=1.00 /

! --- Geometric namelists from Blender Collection <Collection>
&VENT ID='Estrattore'
      XB=-2.500000,-2.500000,19.215481,19.715370,2.011417,2.511308 /
&VENT ID='Finestra1'
      XB=-0.500000,-0.500000,28.911791,29.374041,1.500000,2.700000 /
&VENT ID='Finestra2'
      XB=-0.500108,-0.500000,18.986589,28.911791,1.500000,2.700000 /
&VENT ID='Finestra3'
      XB=93.250000,93.250000,26.056860,28.911791,1.500000,2.700000 /
&VENT ID='Finestra4'
      XB=93.250000,93.250000,28.911791,32.833359,1.500000,2.700000 /
! XB: 2 voxels, resolution 0.100 m, in 0.060 s
&OBST ID='Jf1_0'
      XB=25.499991,26.600011,21.399990,22.200010,2.799990,2.900010 /
&OBST ID='Jf1_1'
      XB=25.299991,26.600011,21.399990,22.200010,2.699990,2.800010 /
! XB: 21 voxels, resolution 0.100 m, in 0.047 s
&OBST ID='Jf2_0'
      XB=25.999989,26.100009,35.999993,36.100013,2.699990,2.900010 /
&OBST ID='Jf2_1'
      XB=25.799989,26.200009,35.899993,36.000013,2.699990,2.900010 /
&OBST ID='Jf2_2'
      XB=25.699989,26.300009,35.799993,35.900013,2.699990,2.900010 /
&OBST ID='Jf2_3'
      XB=25.599989,26.300009,35.699993,35.800013,2.699990,2.900010 /
&OBST ID='Jf2_4'
      XB=25.399989,26.400009,35.599993,35.700013,2.699990,2.900010 /
&OBST ID='Jf2_5'
      XB=25.299989,26.500009,35.499993,35.600013,2.699990,2.900010 /
&OBST ID='Jf2_6'
      XB=25.199989,26.500009,35.399993,35.500013,2.799990,2.900010 /
&OBST ID='Jf2_7'
      XB=25.099989,26.500009,35.399993,35.500013,2.699990,2.800010 /
&OBST ID='Jf2_8'
      XB=25.199989,26.400009,35.299993,35.400013,2.799990,2.900010 /
&OBST ID='Jf2_9'
      XB=24.999989,26.400009,35.299993,35.400013,2.699990,2.800010 /
&OBST ID='Jf2_10'
      XB=25.299989,26.200009,35.199993,35.300013,2.799990,2.900010 /
&OBST ID='Jf2_11'
      XB=24.999989,26.200009,35.199993,35.300013,2.699990,2.800010 /
&OBST ID='Jf2_12'
      XB=25.399989,26.100009,35.099993,35.200013,2.799990,2.900010 /
&OBST ID='Jf2_13'
      XB=25.099989,26.100009,35.099993,35.200013,2.699990,2.800010 /
&OBST ID='Jf2_14'
      XB=25.499989,26.000009,34.999993,35.100013,2.799990,2.900010 /
&OBST ID='Jf2_15'
      XB=25.199989,26.000009,34.999993,35.100013,2.699990,2.800010 /
&OBST ID='Jf2_16'
      XB=25.499989,25.800009,34.899993,35.000013,2.799990,2.900010 /
&OBST ID='Jf2_17'
      XB=25.199989,25.800009,34.899993,35.000013,2.699990,2.800010 /
&OBST ID='Jf2_18'
      XB=25.599989,25.700009,34.799993,34.900013,2.799990,2.900010 /
&OBST ID='Jf2_19'
      XB=25.299989,25.700009,34.799993,34.900013,2.699990,2.800010 /
&OBST ID='Jf2_20'
      XB=25.399989,25.500009,34.699993,34.800013,2.699990,2.800010 /
! XB: 2 voxels, resolution 0.100 m, in 0.030 s
&OBST ID='Jf3_0'
      XB=46.399988,47.500008,37.199992,38.000012,2.799990,2.900010 /
&OBST ID='Jf3_1'
      XB=46.099988,47.500008,37.199992,38.000012,2.699990,2.800010 /
! XB: 2 voxels, resolution 0.100 m, in 0.066 s
&OBST ID='Jf4_0'
      XB=56.499993,57.700013,21.399990,22.200010,2.799990,2.900010 /
&OBST ID='Jf4_1'
      XB=56.299993,57.700013,21.399990,22.200010,2.699990,2.800010 /
! XB: 2580 voxels, resolution 0.100 m, in 1.611 s
&OBST ID='Mesh1_0'
      XB=-4.100010,53.400010,42.399991,44.000011,-0.000011,3.100009 /
&OBST ID='Mesh1_1'
      XB=49.399990,53.400010,42.299991,42.400011,2.999989,3.100009 /
&OBST ID='Mesh1_2'
      XB=-4.100010,42.500010,42.299991,42.400011,2.999989,3.100009 /
&OBST ID='Mesh1_3'
      XB=49.399990,53.400010,42.299991,42.400011,2.899989,3.000009 /
&OBST ID='Mesh1_4'
      XB=-4.100010,42.500010,42.299991,42.400011,2.899989,3.000009 /
&OBST ID='Mesh1_5'
      XB=49.399990,53.400010,42.299991,42.400011,2.799989,2.900009 /
&OBST ID='Mesh1_6'
      XB=-4.100010,42.500010,42.299991,42.400011,2.799989,2.900009 /
&OBST ID='Mesh1_7'
      XB=49.399990,53.400010,42.299991,42.400011,2.699989,2.800009 /
&OBST ID='Mesh1_8'
      XB=-4.100010,42.500010,42.299991,42.400011,2.699989,2.800009 /
&OBST ID='Mesh1_9'
      XB=49.399990,53.400010,42.299991,42.400011,2.599989,2.700009 /
&OBST ID='Mesh1_10'
      XB=-4.100010,42.500010,42.299991,42.400011,2.599989,2.700009 /
&OBST ID='Mesh1_11'
      XB=49.399990,53.400010,42.299991,42.400011,2.499989,2.600009 /
&OBST ID='Mesh1_12'
      XB=-4.100010,42.500010,42.299991,42.400011,2.499989,2.600009 /
&OBST ID='Mesh1_13'
      XB=49.399990,53.400010,42.299991,42.400011,2.399989,2.500009 /
&OBST ID='Mesh1_14'
      XB=-4.100010,42.500010,42.299991,42.400011,2.399989,2.500009 /
&OBST ID='Mesh1_15'
      XB=49.399990,53.400010,42.299991,42.400011,2.299989,2.400009 /
&OBST ID='Mesh1_16'
      XB=-4.100010,42.500010,42.299991,42.400011,2.299989,2.400009 /
&OBST ID='Mesh1_17'
      XB=49.399990,53.400010,42.299991,42.400011,2.199989,2.300009 /
&OBST ID='Mesh1_18'
      XB=-4.100010,42.500010,42.299991,42.400011,2.199989,2.300009 /
&OBST ID='Mesh1_19'
      XB=49.399990,53.400010,42.299991,42.400011,2.099989,2.200009 /
&OBST ID='Mesh1_20'
      XB=-4.100010,42.500010,42.299991,42.400011,2.099989,2.200009 /
&OBST ID='Mesh1_21'
      XB=49.399990,53.400010,42.299991,42.400011,1.999989,2.100009 /
&OBST ID='Mesh1_22'
      XB=-4.100010,42.500010,42.299991,42.400011,1.999989,2.100009 /
&OBST ID='Mesh1_23'
      XB=49.399990,53.400010,42.299991,42.400011,1.899989,2.000009 /
&OBST ID='Mesh1_24'
      XB=-4.100010,42.500010,42.299991,42.400011,1.899989,2.000009 /
&OBST ID='Mesh1_25'
      XB=49.399990,53.400010,42.299991,42.400011,1.799989,1.900009 /
&OBST ID='Mesh1_26'
      XB=-4.100010,42.500010,42.299991,42.400011,1.799989,1.900009 /
&OBST ID='Mesh1_27'
      XB=49.399990,53.400010,42.299991,42.400011,1.699989,1.800009 /
&OBST ID='Mesh1_28'
      XB=-4.100010,42.500010,42.299991,42.400011,1.699989,1.800009 /
&OBST ID='Mesh1_29'
      XB=49.399990,53.400010,42.299991,42.400011,1.599989,1.700009 /
&OBST ID='Mesh1_30'
      XB=-4.100010,42.500010,42.299991,42.400011,1.599989,1.700009 /
&OBST ID='Mesh1_31'
      XB=49.399990,53.400010,42.299991,42.400011,1.499989,1.600009 /
&OBST ID='Mesh1_32'
      XB=-4.100010,42.500010,42.299991,42.400011,1.499989,1.600009 /
&OBST ID='Mesh1_33'
      XB=49.399990,53.400010,42.299991,42.400011,1.399989,1.500009 /
&OBST ID='Mesh1_34'
      XB=-4.100010,42.500010,42.299991,42.400011,1.399989,1.500009 /
&OBST ID='Mesh1_35'
      XB=49.399990,53.400010,42.299991,42.400011,1.299989,1.400009 /
&OBST ID='Mesh1_36'
      XB=-4.100010,42.500010,42.299991,42.400011,1.299989,1.400009 /
&OBST ID='Mesh1_37'
      XB=49.399990,53.400010,42.299991,42.400011,1.199989,1.300009 /
&OBST ID='Mesh1_38'
      XB=-4.100010,42.500010,42.299991,42.400011,1.199989,1.300009 /
&OBST ID='Mesh1_39'
      XB=49.399990,53.400010,42.299991,42.400011,1.099989,1.200009 /
&OBST ID='Mesh1_40'
      XB=-4.100010,42.500010,42.299991,42.400011,1.099989,1.200009 /
&OBST ID='Mesh1_41'
      XB=49.399990,53.400010,42.299991,42.400011,0.999989,1.100009 /
&OBST ID='Mesh1_42'
      XB=-4.100010,42.500010,42.299991,42.400011,0.999989,1.100009 /
&OBST ID='Mesh1_43'
      XB=49.399990,53.400010,42.299991,42.400011,0.899989,1.000009 /
&OBST ID='Mesh1_44'
      XB=-4.100010,42.500010,42.299991,42.400011,0.899989,1.000009 /
&OBST ID='Mesh1_45'
      XB=49.399990,53.400010,42.299991,42.400011,0.799989,0.900009 /
&OBST ID='Mesh1_46'
      XB=-4.100010,42.500010,42.299991,42.400011,0.799989,0.900009 /
&OBST ID='Mesh1_47'
      XB=49.399990,53.400010,42.299991,42.400011,0.699989,0.800009 /
&OBST ID='Mesh1_48'
      XB=-4.100010,42.500010,42.299991,42.400011,0.699989,0.800009 /
&OBST ID='Mesh1_49'
      XB=49.399990,53.400010,42.299991,42.400011,0.599989,0.700009 /
&OBST ID='Mesh1_50'
      XB=-4.100010,42.500010,42.299991,42.400011,0.599989,0.700009 /
&OBST ID='Mesh1_51'
      XB=49.399990,53.400010,42.299991,42.400011,0.499989,0.600009 /
&OBST ID='Mesh1_52'
      XB=-4.100010,42.500010,42.299991,42.400011,0.499989,0.600009 /
&OBST ID='Mesh1_53'
      XB=49.399990,53.400010,42.299991,42.400011,0.399989,0.500009 /
&OBST ID='Mesh1_54'
      XB=-4.100010,42.500010,42.299991,42.400011,0.399989,0.500009 /
&OBST ID='Mesh1_55'
      XB=49.399990,53.400010,42.299991,42.400011,0.299989,0.400009 /
&OBST ID='Mesh1_56'
      XB=-4.100010,42.500010,42.299991,42.400011,0.299989,0.400009 /
&OBST ID='Mesh1_57'
      XB=49.399990,53.400010,42.299991,42.400011,0.199989,0.300009 /
&OBST ID='Mesh1_58'
      XB=-4.100010,42.500010,42.299991,42.400011,0.199989,0.300009 /
&OBST ID='Mesh1_59'
      XB=49.399990,53.400010,42.299991,42.400011,0.099989,0.200009 /
&OBST ID='Mesh1_60'
      XB=-4.100010,42.500010,42.299991,42.400011,0.099989,0.200009 /
&OBST ID='Mesh1_61'
      XB=49.399990,53.400010,42.299991,42.400011,-0.000011,0.100009 /
&OBST ID='Mesh1_62'
      XB=-4.100010,42.500010,42.299991,42.400011,-0.000011,0.100009 /
&OBST ID='Mesh1_63'
      XB=49.399990,53.400010,42.199991,42.300011,2.999989,3.100009 /
&OBST ID='Mesh1_64'
      XB=-4.100010,42.500010,42.199991,42.300011,2.999989,3.100009 /
&OBST ID='Mesh1_65'
      XB=49.399990,53.400010,42.199991,42.300011,2.899989,3.000009 /
&OBST ID='Mesh1_66'
      XB=-4.100010,42.500010,42.199991,42.300011,2.899989,3.000009 /
&OBST ID='Mesh1_67'
      XB=49.399990,53.400010,42.199991,42.300011,2.799989,2.900009 /
&OBST ID='Mesh1_68'
      XB=-4.100010,42.500010,42.199991,42.300011,2.799989,2.900009 /
&OBST ID='Mesh1_69'
      XB=49.399990,53.400010,42.199991,42.300011,2.699989,2.800009 /
&OBST ID='Mesh1_70'
      XB=-4.100010,42.500010,42.199991,42.300011,2.699989,2.800009 /
&OBST ID='Mesh1_71'
      XB=49.399990,53.400010,42.199991,42.300011,2.599989,2.700009 /
&OBST ID='Mesh1_72'
      XB=-4.100010,42.500010,42.199991,42.300011,2.599989,2.700009 /
&OBST ID='Mesh1_73'
      XB=49.399990,53.400010,42.199991,42.300011,2.499989,2.600009 /
&OBST ID='Mesh1_74'
      XB=-4.100010,42.500010,42.199991,42.300011,2.499989,2.600009 /
&OBST ID='Mesh1_75'
      XB=49.399990,53.400010,42.199991,42.300011,2.399989,2.500009 /
&OBST ID='Mesh1_76'
      XB=-4.100010,42.500010,42.199991,42.300011,2.399989,2.500009 /
&OBST ID='Mesh1_77'
      XB=49.399990,53.400010,42.199991,42.300011,2.299989,2.400009 /
&OBST ID='Mesh1_78'
      XB=-4.100010,42.500010,42.199991,42.300011,2.299989,2.400009 /
&OBST ID='Mesh1_79'
      XB=49.399990,53.400010,42.199991,42.300011,2.199989,2.300009 /
&OBST ID='Mesh1_80'
      XB=-4.100010,42.500010,42.199991,42.300011,2.199989,2.300009 /
&OBST ID='Mesh1_81'
      XB=49.399990,53.400010,42.199991,42.300011,2.099989,2.200009 /
&OBST ID='Mesh1_82'
      XB=-4.100010,42.500010,42.199991,42.300011,2.099989,2.200009 /
&OBST ID='Mesh1_83'
      XB=49.399990,53.400010,42.199991,42.300011,1.999989,2.100009 /
&OBST ID='Mesh1_84'
      XB=-4.100010,42.500010,42.199991,42.300011,1.999989,2.100009 /
&OBST ID='Mesh1_85'
      XB=49.399990,53.400010,42.199991,42.300011,1.899989,2.000009 /
&OBST ID='Mesh1_86'
      XB=-4.100010,42.500010,42.199991,42.300011,1.899989,2.000009 /
&OBST ID='Mesh1_87'
      XB=49.399990,53.400010,42.199991,42.300011,1.799989,1.900009 /
&OBST ID='Mesh1_88'
      XB=-4.100010,42.500010,42.199991,42.300011,1.799989,1.900009 /
&OBST ID='Mesh1_89'
      XB=49.399990,53.400010,42.199991,42.300011,1.699989,1.800009 /
&OBST ID='Mesh1_90'
      XB=-4.100010,42.500010,42.199991,42.300011,1.699989,1.800009 /
&OBST ID='Mesh1_91'
      XB=49.399990,53.400010,42.199991,42.300011,1.599989,1.700009 /
&OBST ID='Mesh1_92'
      XB=-4.100010,42.500010,42.199991,42.300011,1.599989,1.700009 /
&OBST ID='Mesh1_93'
      XB=49.399990,53.400010,42.199991,42.300011,1.499989,1.600009 /
&OBST ID='Mesh1_94'
      XB=-4.100010,42.500010,42.199991,42.300011,1.499989,1.600009 /
&OBST ID='Mesh1_95'
      XB=49.399990,53.400010,42.199991,42.300011,1.399989,1.500009 /
&OBST ID='Mesh1_96'
      XB=-4.100010,42.500010,42.199991,42.300011,1.399989,1.500009 /
&OBST ID='Mesh1_97'
      XB=49.399990,53.400010,42.199991,42.300011,1.299989,1.400009 /
&OBST ID='Mesh1_98'
      XB=-4.100010,42.500010,42.199991,42.300011,1.299989,1.400009 /
&OBST ID='Mesh1_99'
      XB=49.399990,53.400010,42.199991,42.300011,1.199989,1.300009 /
&OBST ID='Mesh1_100'
      XB=-4.100010,42.500010,42.199991,42.300011,1.199989,1.300009 /
&OBST ID='Mesh1_101'
      XB=49.399990,53.400010,42.199991,42.300011,1.099989,1.200009 /
&OBST ID='Mesh1_102'
      XB=-4.100010,42.500010,42.199991,42.300011,1.099989,1.200009 /
&OBST ID='Mesh1_103'
      XB=49.399990,53.400010,42.199991,42.300011,0.999989,1.100009 /
&OBST ID='Mesh1_104'
      XB=-4.100010,42.500010,42.199991,42.300011,0.999989,1.100009 /
&OBST ID='Mesh1_105'
      XB=49.399990,53.400010,42.199991,42.300011,0.899989,1.000009 /
&OBST ID='Mesh1_106'
      XB=-4.100010,42.500010,42.199991,42.300011,0.899989,1.000009 /
&OBST ID='Mesh1_107'
      XB=49.399990,53.400010,42.199991,42.300011,0.799989,0.900009 /
&OBST ID='Mesh1_108'
      XB=-4.100010,42.500010,42.199991,42.300011,0.799989,0.900009 /
&OBST ID='Mesh1_109'
      XB=49.399990,53.400010,42.199991,42.300011,0.699989,0.800009 /
&OBST ID='Mesh1_110'
      XB=-4.100010,42.500010,42.199991,42.300011,0.699989,0.800009 /
&OBST ID='Mesh1_111'
      XB=49.399990,53.400010,42.199991,42.300011,0.599989,0.700009 /
&OBST ID='Mesh1_112'
      XB=-4.100010,42.500010,42.199991,42.300011,0.599989,0.700009 /
&OBST ID='Mesh1_113'
      XB=49.399990,53.400010,42.199991,42.300011,0.499989,0.600009 /
&OBST ID='Mesh1_114'
      XB=-4.100010,42.500010,42.199991,42.300011,0.499989,0.600009 /
&OBST ID='Mesh1_115'
      XB=49.399990,53.400010,42.199991,42.300011,0.399989,0.500009 /
&OBST ID='Mesh1_116'
      XB=-4.100010,42.500010,42.199991,42.300011,0.399989,0.500009 /
&OBST ID='Mesh1_117'
      XB=49.399990,53.400010,42.199991,42.300011,0.299989,0.400009 /
&OBST ID='Mesh1_118'
      XB=-4.100010,42.500010,42.199991,42.300011,0.299989,0.400009 /
&OBST ID='Mesh1_119'
      XB=49.399990,53.400010,42.199991,42.300011,0.199989,0.300009 /
&OBST ID='Mesh1_120'
      XB=-4.100010,42.500010,42.199991,42.300011,0.199989,0.300009 /
&OBST ID='Mesh1_121'
      XB=49.399990,53.400010,42.199991,42.300011,0.099989,0.200009 /
&OBST ID='Mesh1_122'
      XB=-4.100010,42.500010,42.199991,42.300011,0.099989,0.200009 /
&OBST ID='Mesh1_123'
      XB=49.399990,53.400010,42.199991,42.300011,-0.000011,0.100009 /
&OBST ID='Mesh1_124'
      XB=-4.100010,42.500010,42.199991,42.300011,-0.000011,0.100009 /
&OBST ID='Mesh1_125'
      XB=49.399990,53.400010,42.099991,42.200011,2.999989,3.100009 /
&OBST ID='Mesh1_126'
      XB=40.999990,42.500010,42.099991,42.200011,2.999989,3.100009 /
&OBST ID='Mesh1_127'
      XB=-4.100010,10.800010,42.099991,42.200011,2.999989,3.100009 /
&OBST ID='Mesh1_128'
      XB=49.399990,53.400010,42.099991,42.200011,2.899989,3.000009 /
&OBST ID='Mesh1_129'
      XB=40.999990,42.500010,42.099991,42.200011,2.899989,3.000009 /
&OBST ID='Mesh1_130'
      XB=-4.100010,10.800010,42.099991,42.200011,2.899989,3.000009 /
&OBST ID='Mesh1_131'
      XB=49.399990,53.400010,42.099991,42.200011,2.799989,2.900009 /
&OBST ID='Mesh1_132'
      XB=40.999990,42.500010,42.099991,42.200011,2.799989,2.900009 /
&OBST ID='Mesh1_133'
      XB=-4.100010,10.800010,42.099991,42.200011,2.799989,2.900009 /
&OBST ID='Mesh1_134'
      XB=49.399990,53.400010,42.099991,42.200011,2.699989,2.800009 /
&OBST ID='Mesh1_135'
      XB=40.999990,42.500010,42.099991,42.200011,2.699989,2.800009 /
&OBST ID='Mesh1_136'
      XB=-4.100010,10.800010,42.099991,42.200011,2.699989,2.800009 /
&OBST ID='Mesh1_137'
      XB=49.399990,53.400010,42.099991,42.200011,2.599989,2.700009 /
&OBST ID='Mesh1_138'
      XB=40.999990,42.500010,42.099991,42.200011,2.599989,2.700009 /
&OBST ID='Mesh1_139'
      XB=-4.100010,10.800010,42.099991,42.200011,2.599989,2.700009 /
&OBST ID='Mesh1_140'
      XB=49.399990,53.400010,42.099991,42.200011,2.499989,2.600009 /
&OBST ID='Mesh1_141'
      XB=40.999990,42.500010,42.099991,42.200011,2.499989,2.600009 /
&OBST ID='Mesh1_142'
      XB=-4.100010,10.800010,42.099991,42.200011,2.499989,2.600009 /
&OBST ID='Mesh1_143'
      XB=49.399990,53.400010,42.099991,42.200011,2.399989,2.500009 /
&OBST ID='Mesh1_144'
      XB=40.999990,42.500010,42.099991,42.200011,2.399989,2.500009 /
&OBST ID='Mesh1_145'
      XB=-4.100010,10.800010,42.099991,42.200011,2.399989,2.500009 /
&OBST ID='Mesh1_146'
      XB=49.399990,53.400010,42.099991,42.200011,2.299989,2.400009 /
&OBST ID='Mesh1_147'
      XB=40.999990,42.500010,42.099991,42.200011,2.299989,2.400009 /
&OBST ID='Mesh1_148'
      XB=-4.100010,10.800010,42.099991,42.200011,2.299989,2.400009 /
&OBST ID='Mesh1_149'
      XB=49.399990,53.400010,42.099991,42.200011,2.199989,2.300009 /
&OBST ID='Mesh1_150'
      XB=40.999990,42.500010,42.099991,42.200011,2.199989,2.300009 /
&OBST ID='Mesh1_151'
      XB=-4.100010,10.800010,42.099991,42.200011,2.199989,2.300009 /
&OBST ID='Mesh1_152'
      XB=49.399990,53.400010,42.099991,42.200011,2.099989,2.200009 /
&OBST ID='Mesh1_153'
      XB=40.999990,42.500010,42.099991,42.200011,2.099989,2.200009 /
&OBST ID='Mesh1_154'
      XB=-4.100010,10.800010,42.099991,42.200011,2.099989,2.200009 /
&OBST ID='Mesh1_155'
      XB=49.399990,53.400010,42.099991,42.200011,1.999989,2.100009 /
&OBST ID='Mesh1_156'
      XB=40.999990,42.500010,42.099991,42.200011,1.999989,2.100009 /
&OBST ID='Mesh1_157'
      XB=-4.100010,10.800010,42.099991,42.200011,1.999989,2.100009 /
&OBST ID='Mesh1_158'
      XB=49.399990,53.400010,42.099991,42.200011,1.899989,2.000009 /
&OBST ID='Mesh1_159'
      XB=40.999990,42.500010,42.099991,42.200011,1.899989,2.000009 /
&OBST ID='Mesh1_160'
      XB=-4.100010,10.800010,42.099991,42.200011,1.899989,2.000009 /
&OBST ID='Mesh1_161'
      XB=49.399990,53.400010,42.099991,42.200011,1.799989,1.900009 /
&OBST ID='Mesh1_162'
      XB=40.999990,42.500010,42.099991,42.200011,1.799989,1.900009 /
&OBST ID='Mesh1_163'
      XB=-4.100010,10.800010,42.099991,42.200011,1.799989,1.900009 /
&OBST ID='Mesh1_164'
      XB=49.399990,53.400010,42.099991,42.200011,1.699989,1.800009 /
&OBST ID='Mesh1_165'
      XB=40.999990,42.500010,42.099991,42.200011,1.699989,1.800009 /
&OBST ID='Mesh1_166'
      XB=-4.100010,10.800010,42.099991,42.200011,1.699989,1.800009 /
&OBST ID='Mesh1_167'
      XB=49.399990,53.400010,42.099991,42.200011,1.599989,1.700009 /
&OBST ID='Mesh1_168'
      XB=40.999990,42.500010,42.099991,42.200011,1.599989,1.700009 /
&OBST ID='Mesh1_169'
      XB=-4.100010,10.800010,42.099991,42.200011,1.599989,1.700009 /
&OBST ID='Mesh1_170'
      XB=49.399990,53.400010,42.099991,42.200011,1.499989,1.600009 /
&OBST ID='Mesh1_171'
      XB=40.999990,42.500010,42.099991,42.200011,1.499989,1.600009 /
&OBST ID='Mesh1_172'
      XB=-4.100010,10.800010,42.099991,42.200011,1.499989,1.600009 /
&OBST ID='Mesh1_173'
      XB=49.399990,53.400010,42.099991,42.200011,1.399989,1.500009 /
&OBST ID='Mesh1_174'
      XB=40.999990,42.500010,42.099991,42.200011,1.399989,1.500009 /
&OBST ID='Mesh1_175'
      XB=-4.100010,10.800010,42.099991,42.200011,1.399989,1.500009 /
&OBST ID='Mesh1_176'
      XB=49.399990,53.400010,42.099991,42.200011,1.299989,1.400009 /
&OBST ID='Mesh1_177'
      XB=40.999990,42.500010,42.099991,42.200011,1.299989,1.400009 /
&OBST ID='Mesh1_178'
      XB=-4.100010,10.800010,42.099991,42.200011,1.299989,1.400009 /
&OBST ID='Mesh1_179'
      XB=49.399990,53.400010,42.099991,42.200011,1.199989,1.300009 /
&OBST ID='Mesh1_180'
      XB=40.999990,42.500010,42.099991,42.200011,1.199989,1.300009 /
&OBST ID='Mesh1_181'
      XB=-4.100010,10.800010,42.099991,42.200011,1.199989,1.300009 /
&OBST ID='Mesh1_182'
      XB=49.399990,53.400010,42.099991,42.200011,1.099989,1.200009 /
&OBST ID='Mesh1_183'
      XB=40.999990,42.500010,42.099991,42.200011,1.099989,1.200009 /
&OBST ID='Mesh1_184'
      XB=-4.100010,10.800010,42.099991,42.200011,1.099989,1.200009 /
&OBST ID='Mesh1_185'
      XB=49.399990,53.400010,42.099991,42.200011,0.999989,1.100009 /
&OBST ID='Mesh1_186'
      XB=40.999990,42.500010,42.099991,42.200011,0.999989,1.100009 /
&OBST ID='Mesh1_187'
      XB=-4.100010,10.800010,42.099991,42.200011,0.999989,1.100009 /
&OBST ID='Mesh1_188'
      XB=49.399990,53.400010,42.099991,42.200011,0.899989,1.000009 /
&OBST ID='Mesh1_189'
      XB=40.999990,42.500010,42.099991,42.200011,0.899989,1.000009 /
&OBST ID='Mesh1_190'
      XB=-4.100010,10.800010,42.099991,42.200011,0.899989,1.000009 /
&OBST ID='Mesh1_191'
      XB=49.399990,53.400010,42.099991,42.200011,0.799989,0.900009 /
&OBST ID='Mesh1_192'
      XB=40.999990,42.500010,42.099991,42.200011,0.799989,0.900009 /
&OBST ID='Mesh1_193'
      XB=-4.100010,10.800010,42.099991,42.200011,0.799989,0.900009 /
&OBST ID='Mesh1_194'
      XB=49.399990,53.400010,42.099991,42.200011,0.699989,0.800009 /
&OBST ID='Mesh1_195'
      XB=40.999990,42.500010,42.099991,42.200011,0.699989,0.800009 /
&OBST ID='Mesh1_196'
      XB=-4.100010,10.800010,42.099991,42.200011,0.699989,0.800009 /
&OBST ID='Mesh1_197'
      XB=49.399990,53.400010,42.099991,42.200011,0.599989,0.700009 /
&OBST ID='Mesh1_198'
      XB=40.999990,42.500010,42.099991,42.200011,0.599989,0.700009 /
&OBST ID='Mesh1_199'
      XB=-4.100010,10.800010,42.099991,42.200011,0.599989,0.700009 /
&OBST ID='Mesh1_200'
      XB=49.399990,53.400010,42.099991,42.200011,0.499989,0.600009 /
&OBST ID='Mesh1_201'
      XB=40.999990,42.500010,42.099991,42.200011,0.499989,0.600009 /
&OBST ID='Mesh1_202'
      XB=-4.100010,10.800010,42.099991,42.200011,0.499989,0.600009 /
&OBST ID='Mesh1_203'
      XB=49.399990,53.400010,42.099991,42.200011,0.399989,0.500009 /
&OBST ID='Mesh1_204'
      XB=40.999990,42.500010,42.099991,42.200011,0.399989,0.500009 /
&OBST ID='Mesh1_205'
      XB=-4.100010,10.800010,42.099991,42.200011,0.399989,0.500009 /
&OBST ID='Mesh1_206'
      XB=49.399990,53.400010,42.099991,42.200011,0.299989,0.400009 /
&OBST ID='Mesh1_207'
      XB=40.999990,42.500010,42.099991,42.200011,0.299989,0.400009 /
&OBST ID='Mesh1_208'
      XB=-4.100010,10.800010,42.099991,42.200011,0.299989,0.400009 /
&OBST ID='Mesh1_209'
      XB=49.399990,53.400010,42.099991,42.200011,0.199989,0.300009 /
&OBST ID='Mesh1_210'
      XB=40.999990,42.500010,42.099991,42.200011,0.199989,0.300009 /
&OBST ID='Mesh1_211'
      XB=-4.100010,10.800010,42.099991,42.200011,0.199989,0.300009 /
&OBST ID='Mesh1_212'
      XB=49.399990,53.400010,42.099991,42.200011,0.099989,0.200009 /
&OBST ID='Mesh1_213'
      XB=40.999990,42.500010,42.099991,42.200011,0.099989,0.200009 /
&OBST ID='Mesh1_214'
      XB=-4.100010,10.800010,42.099991,42.200011,0.099989,0.200009 /
&OBST ID='Mesh1_215'
      XB=49.399990,53.400010,42.099991,42.200011,-0.000011,0.100009 /
&OBST ID='Mesh1_216'
      XB=40.999990,42.500010,42.099991,42.200011,-0.000011,0.100009 /
&OBST ID='Mesh1_217'
      XB=-4.100010,10.800010,42.099991,42.200011,-0.000011,0.100009 /
&OBST ID='Mesh1_218'
      XB=49.399990,53.400010,41.999991,42.100011,2.999989,3.100009 /
&OBST ID='Mesh1_219'
      XB=40.999990,42.500010,41.999991,42.100011,2.999989,3.100009 /
&OBST ID='Mesh1_220'
      XB=-4.100010,10.800010,41.999991,42.100011,2.999989,3.100009 /
&OBST ID='Mesh1_221'
      XB=49.399990,53.400010,41.999991,42.100011,2.899989,3.000009 /
&OBST ID='Mesh1_222'
      XB=40.999990,42.500010,41.999991,42.100011,2.899989,3.000009 /
&OBST ID='Mesh1_223'
      XB=-4.100010,10.800010,41.999991,42.100011,2.899989,3.000009 /
&OBST ID='Mesh1_224'
      XB=49.399990,53.400010,41.999991,42.100011,2.799989,2.900009 /
&OBST ID='Mesh1_225'
      XB=40.999990,42.500010,41.999991,42.100011,2.799989,2.900009 /
&OBST ID='Mesh1_226'
      XB=-4.100010,10.800010,41.999991,42.100011,2.799989,2.900009 /
&OBST ID='Mesh1_227'
      XB=49.399990,53.400010,41.999991,42.100011,2.699989,2.800009 /
&OBST ID='Mesh1_228'
      XB=40.999990,42.500010,41.999991,42.100011,2.699989,2.800009 /
&OBST ID='Mesh1_229'
      XB=-4.100010,10.800010,41.999991,42.100011,2.699989,2.800009 /
&OBST ID='Mesh1_230'
      XB=49.399990,53.400010,41.999991,42.100011,2.599989,2.700009 /
&OBST ID='Mesh1_231'
      XB=40.999990,42.500010,41.999991,42.100011,2.599989,2.700009 /
&OBST ID='Mesh1_232'
      XB=-4.100010,10.800010,41.999991,42.100011,2.599989,2.700009 /
&OBST ID='Mesh1_233'
      XB=49.399990,53.400010,41.999991,42.100011,2.499989,2.600009 /
&OBST ID='Mesh1_234'
      XB=40.999990,42.500010,41.999991,42.100011,2.499989,2.600009 /
&OBST ID='Mesh1_235'
      XB=-4.100010,10.800010,41.999991,42.100011,2.499989,2.600009 /
&OBST ID='Mesh1_236'
      XB=49.399990,53.400010,41.999991,42.100011,2.399989,2.500009 /
&OBST ID='Mesh1_237'
      XB=40.999990,42.500010,41.999991,42.100011,2.399989,2.500009 /
&OBST ID='Mesh1_238'
      XB=-4.100010,10.800010,41.999991,42.100011,2.399989,2.500009 /
&OBST ID='Mesh1_239'
      XB=49.399990,53.400010,41.999991,42.100011,2.299989,2.400009 /
&OBST ID='Mesh1_240'
      XB=40.999990,42.500010,41.999991,42.100011,2.299989,2.400009 /
&OBST ID='Mesh1_241'
      XB=-4.100010,10.800010,41.999991,42.100011,2.299989,2.400009 /
&OBST ID='Mesh1_242'
      XB=49.399990,53.400010,41.999991,42.100011,2.199989,2.300009 /
&OBST ID='Mesh1_243'
      XB=40.999990,42.500010,41.999991,42.100011,2.199989,2.300009 /
&OBST ID='Mesh1_244'
      XB=-4.100010,10.800010,41.999991,42.100011,2.199989,2.300009 /
&OBST ID='Mesh1_245'
      XB=49.399990,53.400010,41.999991,42.100011,2.099989,2.200009 /
&OBST ID='Mesh1_246'
      XB=40.999990,42.500010,41.999991,42.100011,2.099989,2.200009 /
&OBST ID='Mesh1_247'
      XB=-4.100010,10.800010,41.999991,42.100011,2.099989,2.200009 /
&OBST ID='Mesh1_248'
      XB=49.399990,53.400010,41.999991,42.100011,1.999989,2.100009 /
&OBST ID='Mesh1_249'
      XB=40.999990,42.500010,41.999991,42.100011,1.999989,2.100009 /
&OBST ID='Mesh1_250'
      XB=-4.100010,10.800010,41.999991,42.100011,1.999989,2.100009 /
&OBST ID='Mesh1_251'
      XB=49.399990,53.400010,41.999991,42.100011,1.899989,2.000009 /
&OBST ID='Mesh1_252'
      XB=40.999990,42.500010,41.999991,42.100011,1.899989,2.000009 /
&OBST ID='Mesh1_253'
      XB=-4.100010,10.800010,41.999991,42.100011,1.899989,2.000009 /
&OBST ID='Mesh1_254'
      XB=49.399990,53.400010,41.999991,42.100011,1.799989,1.900009 /
&OBST ID='Mesh1_255'
      XB=40.999990,42.500010,41.999991,42.100011,1.799989,1.900009 /
&OBST ID='Mesh1_256'
      XB=-4.100010,10.800010,41.999991,42.100011,1.799989,1.900009 /
&OBST ID='Mesh1_257'
      XB=49.399990,53.400010,41.999991,42.100011,1.699989,1.800009 /
&OBST ID='Mesh1_258'
      XB=40.999990,42.500010,41.999991,42.100011,1.699989,1.800009 /
&OBST ID='Mesh1_259'
      XB=-4.100010,10.800010,41.999991,42.100011,1.699989,1.800009 /
&OBST ID='Mesh1_260'
      XB=49.399990,53.400010,41.999991,42.100011,1.599989,1.700009 /
&OBST ID='Mesh1_261'
      XB=40.999990,42.500010,41.999991,42.100011,1.599989,1.700009 /
&OBST ID='Mesh1_262'
      XB=-4.100010,10.800010,41.999991,42.100011,1.599989,1.700009 /
&OBST ID='Mesh1_263'
      XB=49.399990,53.400010,41.999991,42.100011,1.499989,1.600009 /
&OBST ID='Mesh1_264'
      XB=40.999990,42.500010,41.999991,42.100011,1.499989,1.600009 /
&OBST ID='Mesh1_265'
      XB=-4.100010,10.800010,41.999991,42.100011,1.499989,1.600009 /
&OBST ID='Mesh1_266'
      XB=49.399990,53.400010,41.999991,42.100011,1.399989,1.500009 /
&OBST ID='Mesh1_267'
      XB=40.999990,42.500010,41.999991,42.100011,1.399989,1.500009 /
&OBST ID='Mesh1_268'
      XB=-4.100010,10.800010,41.999991,42.100011,1.399989,1.500009 /
&OBST ID='Mesh1_269'
      XB=49.399990,53.400010,41.999991,42.100011,1.299989,1.400009 /
&OBST ID='Mesh1_270'
      XB=40.999990,42.500010,41.999991,42.100011,1.299989,1.400009 /
&OBST ID='Mesh1_271'
      XB=-4.100010,10.800010,41.999991,42.100011,1.299989,1.400009 /
&OBST ID='Mesh1_272'
      XB=49.399990,53.400010,41.999991,42.100011,1.199989,1.300009 /
&OBST ID='Mesh1_273'
      XB=40.999990,42.500010,41.999991,42.100011,1.199989,1.300009 /
&OBST ID='Mesh1_274'
      XB=-4.100010,10.800010,41.999991,42.100011,1.199989,1.300009 /
&OBST ID='Mesh1_275'
      XB=49.399990,53.400010,41.999991,42.100011,1.099989,1.200009 /
&OBST ID='Mesh1_276'
      XB=40.999990,42.500010,41.999991,42.100011,1.099989,1.200009 /
&OBST ID='Mesh1_277'
      XB=-4.100010,10.800010,41.999991,42.100011,1.099989,1.200009 /
&OBST ID='Mesh1_278'
      XB=49.399990,53.400010,41.999991,42.100011,0.999989,1.100009 /
&OBST ID='Mesh1_279'
      XB=40.999990,42.500010,41.999991,42.100011,0.999989,1.100009 /
&OBST ID='Mesh1_280'
      XB=-4.100010,10.800010,41.999991,42.100011,0.999989,1.100009 /
&OBST ID='Mesh1_281'
      XB=49.399990,53.400010,41.999991,42.100011,0.899989,1.000009 /
&OBST ID='Mesh1_282'
      XB=40.999990,42.500010,41.999991,42.100011,0.899989,1.000009 /
&OBST ID='Mesh1_283'
      XB=-4.100010,10.800010,41.999991,42.100011,0.899989,1.000009 /
&OBST ID='Mesh1_284'
      XB=49.399990,53.400010,41.999991,42.100011,0.799989,0.900009 /
&OBST ID='Mesh1_285'
      XB=40.999990,42.500010,41.999991,42.100011,0.799989,0.900009 /
&OBST ID='Mesh1_286'
      XB=-4.100010,10.800010,41.999991,42.100011,0.799989,0.900009 /
&OBST ID='Mesh1_287'
      XB=49.399990,53.400010,41.999991,42.100011,0.699989,0.800009 /
&OBST ID='Mesh1_288'
      XB=40.999990,42.500010,41.999991,42.100011,0.699989,0.800009 /
&OBST ID='Mesh1_289'
      XB=-4.100010,10.800010,41.999991,42.100011,0.699989,0.800009 /
&OBST ID='Mesh1_290'
      XB=49.399990,53.400010,41.999991,42.100011,0.599989,0.700009 /
&OBST ID='Mesh1_291'
      XB=40.999990,42.500010,41.999991,42.100011,0.599989,0.700009 /
&OBST ID='Mesh1_292'
      XB=-4.100010,10.800010,41.999991,42.100011,0.599989,0.700009 /
&OBST ID='Mesh1_293'
      XB=49.399990,53.400010,41.999991,42.100011,0.499989,0.600009 /
&OBST ID='Mesh1_294'
      XB=40.999990,42.500010,41.999991,42.100011,0.499989,0.600009 /
&OBST ID='Mesh1_295'
      XB=-4.100010,10.800010,41.999991,42.100011,0.499989,0.600009 /
&OBST ID='Mesh1_296'