! Generated by BlenderFDS 5.0.0 on Blender 2.80 (sub 75)
! File: <not saved>
! Blender Scene: <Scene>
! Date: <Fri, 08 Nov 2019, 11:01:44>
&HEAD CHID='Scene' /
&TIME T_END=1.0 /

! --- Boundary conditions from Blender Materials
&SURF ID='Material'
      RGB=204,204,204
      TRANSPARENCY=1.00 /

! --- Geometric namelists from Blender Collection <Collection>
&MESH ID='Cube' IJK=10,10,10
      XB=-1.000000,1.000000,-1.000000,1.000000,-1.000000,1.000000 /

&TAIL /