! Generated by BlenderFDS 5.0.0 on Blender 2.82 (sub 7)
! File: <.../verification/geometry/Blender_Input_Files/geometry.blend>
! Blender Scene: <geom_complex>
! Date: <Wed, 29 Apr 2020, 12:18:39>
&HEAD CHID='geom_complex' TITLE='Test geom w modifiers' /
&TIME T_END=1.0 /

! --- Boundary conditions from Blender Materials
&SURF ID='Material' RGB=91,204,120 TRANSPARENCY=1.00 /
&SURF ID='Material_blue' RGB=0,16,204 TRANSPARENCY=1.00 /
&SURF ID='Material_red' RGB=255,0,0 TRANSPARENCY=1.00 /

! --- Geometric namelists from Blender Collection <Master Collection>
! Cell Size: 0.130 m, 0.100 m, 0.100 m | Qty: 8000 | Aspect: 1.3 | Poisson: Yes
&MESH ID='Domain' IJK=20,20,20
      XB=-1.000000,1.000000,-1.000000,1.000000,-1.000000,1.000000 /
! GEOM: 18897 vertices, 37782 faces, in 0.058 s
&GEOM ID='Suzanne' SURF_ID='INERT','Material_red','Material_blue'
      VERTS=-0.423372,-0.515878,-0.107077,-0.439688,-0.507554,-0.124417,
        -0.449041,-0.475236,-0.131792,-0.459731,-0.440489,-0.139385,-0.387963,
        -0.510582,-0.135095,-0.398091,-0.516156,-0.116703,-0.397131,-0.494800,
        -0.146296,-0.417720,-0.503408,-0.137646,-0.405992,-0.465174,-0.152959,
        -0.428105,-0.471593,-0.144282,-0.439413,-0.436890,-0.151531,-0.361446,
        -0.512849,-0.090035,-0.364921,-0.504885,-0.137891,-0.363312,-0.508653,
        -0.114797,-0.374794,-0.489063,-0.155345,-0.384000,-0.458144,-0.161381,
        -0.395622,-0.424552,-0.171222,-0.417119,-0.430106,-0.160665,-0.324483,
        -0.509915,-0.094464,-0.318728,-0.489828,-0.163835,-0.330679,-0.495851,
        -0.145228,-0.327280,-0.502534,-0.117989,-0.328267,-0.476360,-0.177494,
        -0.349221,-0.483801,-0.167318,-0.336420,-0.442964,-0.179592,-0.359472,
        -0.450339,-0.170763,-0.372661,-0.419318,-0.183682,-0.284375,-0.512878,
        -0.075084,-0.290041,-0.499842,-0.121624,-0.286495,-0.506991,-0.098732,
        -0.295312,-0.485363,-0.167743,-0.293959,-0.492410,-0.145453,-0.305250,
        -0.471232,-0.188316,-0.313847,-0.435075,-0.188739,-0.328012,-0.409058,
        -0.208002,-0.350255,-0.414206,-0.195845,-0.249635,-0.504173,-0.102812,
        -0.247339,-0.506983,-0.078740,-0.254039,-0.496940,-0.126081,-0.249441,
        -0.468878,-0.193456,-0.261334,-0.479049,-0.177357,-0.258052,-0.489425,
        -0.150183,-0.257881,-0.448086,-0.200432,-0.279083,-0.463684,-0.198674,
        -0.288829,-0.423985,-0.196360,-0.305427,-0.404680,-0.221796,-0.614579,
        -0.325546,-0.256685,-0.631979,-0.303222,-0.276809,-0.644245,-0.273664,
        -0.291811,-0.555049,-0.361800,-0.223248,-0.566657,-0.333954,-0.271911,
        -0.571716,-0.344155,-0.252222,-0.580142,-0.321118,-0.287919,-0.597052,
        -0.326648,-0.274311,-0.596742,-0.303584,-0.309088,-0.617933,-0.308645,
        -0.296699,-0.612779,-0.279504,-0.327411,-0.631073,-0.278154,-0.310387,
        -0.497253,-0.395752,-0.186963,-0.516015,-0.379371,-0.211375,-0.530300,
        -0.364855,-0.233423,-0.543171,-0.330945,-0.276004,-0.536924,-0.348060,
        -0.254509,-0.557165,-0.314475,-0.296588,-0.572875,-0.295403,-0.317821,
        -0.588775,-0.272093,-0.336652,-0.457306,-0.412260,-0.174600,-0.476056,
        -0.392517,-0.199246,-0.475054,-0.366877,-0.231580,-0.494165,-0.375325,
        -0.220687,-0.499119,-0.348822,-0.254033,-0.508125,-0.362679,-0.236449,
        -0.499393,-0.311982,-0.300469,-0.508929,-0.325023,-0.283907,-0.512483,
        -0.299515,-0.316018,-0.532216,-0.307412,-0.305811,-0.528804,-0.279946,
        -0.334247,-0.550435,-0.287758,-0.325992,-0.545028,-0.256892,-0.352834,
        -0.567191,-0.264613,-0.344619,-0.413209,-0.400021,-0.194302,-0.435210,
        -0.405259,-0.183707,-0.431813,-0.378265,-0.217779,-0.454798,-0.385362,
        -0.208538,-0.449610,-0.359812,-0.240813,-0.464820,-0.343067,-0.261726,
        -0.475822,-0.309623,-0.303744,-0.470283,-0.325948,-0.283236,-0.488119,
        -0.293100,-0.324415,-0.503555,-0.271490,-0.343315,-0.519518,-0.248038,
        -0.362262,-0.389861,-0.395170,-0.206433,-0.407677,-0.372030,-0.227858,
        -0.405766,-0.345062,-0.259967,-0.425614,-0.353592,-0.248961,-0.432070,
        -0.326762,-0.282700,-0.440588,-0.340638,-0.265098,-0.446395,-0.305460,
        -0.309369,-0.461957,-0.286587,-0.332961,-0.455811,-0.256044,-0.359996,
        -0.478712,-0.263505,-0.351950,-0.472991,-0.232355,-0.379059,-0.495641,
        -0.239985,-0.370886,-0.345730,-0.385606,-0.229812,-0.367794,-0.390397,
        -0.218113,-0.363843,-0.362541,-0.251068,-0.386150,-0.367297,-0.239340,
        -0.381888,-0.339604,-0.272197,-0.401781,-0.318060,-0.294057,-0.396398,
        -0.291596,-0.327486,-0.420224,-0.298760,-0.318150,-0.415062,-0.271681,
        -0.349534,-0.438342,-0.279513,-0.341143,-0.431934,-0.247917,-0.368683,
        -0.448343,-0.223923,-0.388063,-0.301480,-0.378261,-0.256436,-0.322775,
        -0.380866,-0.242456,-0.319211,-0.354621,-0.276687,-0.340851,-0.357627,
        -0.263170,-0.337157,-0.330969,-0.296845,-0.359082,-0.334788,-0.284134,
        -0.354890,-0.307164,-0.317298,-0.377707,-0.311940,-0.304998,-0.372334,
        -0.284206,-0.338214,-0.367866,-0.259304,-0.372921,-0.390141,-0.262756,
        -0.358981,-0.384403,-0.235516,-0.391958,-0.406898,-0.239120,-0.378028,
        -0.400999,-0.211569,-0.411166,-0.423461,-0.215220,-0.397316,-0.028262,
        -0.490824,-0.104041,-0.037420,-0.496086,-0.071071,-0.041853,-0.484002,
        -0.054058,0.025373,-0.527840,-0.174119,0.018231,-0.537242,-0.147299,
        0.007521,-0.511869,-0.124412,-0.008917,-0.483092,-0.105509,-0.015666,
        -0.489757,-0.068860,-0.026546,-0.474156,-0.054403,0.047606,-0.523214,
        -0.175448,0.046362,-0.525297,-0.144597,0.035958,-0.506398,-0.119071,
        0.016545,-0.475252,-0.104721,-0.000231,-0.471841,-0.074261,-0.011288,
        -0.464411,-0.057451,0.076857,-0.512458,-0.176428,0.073253,-0.505781,
        -0.147497,0.065832,-0.492760,-0.120314,-0.083272,-0.679749,-0.652694,
        -0.092207,-0.676752,-0.631744,-0.099631,-0.665319,-0.603640,-0.098323,
        -0.671116,-0.668411,-0.108663,-0.662068,-0.644497,-0.112168,-0.648079,
        -0.616428,-0.107891,-0.647699,-0.680588,-0.112537,-0.638403,-0.656677,
        -0.115154,-0.627141,-0.628826,-0.113824,-0.628418,-0.686166,-0.115655,
        -0.619872,-0.665944,-0.041731,-0.685291,-0.635638,-0.047526,-0.685250,
        -0.613423,-0.057556,-0.677788,-0.583746,-0.048792,-0.676951,-0.677822,
        -0.058009,-0.681880,-0.655792,-0.070289,-0.682321,-0.623967,-0.078860,
        -0.671472,-0.593810,-0.058957,-0.663509,-0.693165,-0.080019,-0.674454,
        -0.685717,-0.067444,-0.636212,-0.702193,-0.092617,-0.645947,-0.699473,
        -0.118044,-0.608777,-0.639043,-0.109975,-0.615869,-0.709417,-0.118660,
        -0.601740,-0.677863,-0.121397,-0.588837,-0.649154,-0.005302,-0.690074,
        -0.589314,-0.012986,-0.688974,-0.564091,-0.018292,-0.687972,-0.636611,
        -0.018765,-0.688763,-0.606717,-0.035112,-0.684781,-0.574304,-0.026913,
        -0.670540,-0.678772,-0.023468,-0.682116,-0.659772,-0.035852,-0.653617,
        -0.695090,-0.044990,-0.629945,-0.703518,-0.050055,-0.611869,-0.709335,
        -0.072112,-0.605109,-0.712087,0.029746,-0.670468,-0.543650,0.019185,
        -0.681480,-0.590723,0.017739,-0.677251,-0.559726,0.014224,-0.684394,
        -0.640671,0.016386,-0.686212,-0.615034,0.002716,-0.661459,-0.681290,
        0.009026,-0.672099,-0.660748,-0.008153,-0.641655,-0.697432,-0.020133,
        -0.618450,-0.705982,-0.030822,-0.599319,-0.712723,-0.045789,-0.581259,
        -0.714175,0.051253,-0.663652,-0.546785,0.050858,-0.676213,-0.618524,
        0.053072,-0.678510,-0.593678,0.051622,-0.670870,-0.568882,0.042433,
        -0.662225,-0.662974,0.048163,-0.673082,-0.642651,0.034756,-0.650279,
        -0.685687,0.022235,-0.627596,-0.700391,0.009067,-0.604142,-0.709023,
        -0.003466,-0.583398,-0.716778,-0.014841,-0.565170,-0.705827,-0.023797,
        -0.550283,-0.690746,0.085769,-0.667880,-0.573408,0.083930,-0.663825,
        -0.546439,0.084866,-0.664530,-0.620441,0.085288,-0.666202,-0.597068,
        0.075186,-0.648279,-0.663665,0.081564,-0.659238,-0.643443,0.066769,
        -0.635977,-0.688333,0.053678,-0.613324,-0.704920,0.039759,-0.589085,
        -0.713759,0.026106,-0.566499,-0.722006,0.015387,-0.547688,-0.706232,
        0.006314,-0.531780,-0.691391,0.115423,-0.657159,-0.577072,0.113471,
        -0.648691,-0.549528,0.116323,-0.650843,-0.620096,0.115008,-0.657478,
        -0.599344,0.107404,-0.633958,-0.664788,0.113685,-0.644897,-0.643587,
        0.098892,-0.621800,-0.691840,0.084810,-0.597460,-0.707170,0.070705,
        -0.573505,-0.718761,0.056743,-0.549716,-0.721487,0.046363,-0.531102,
        -0.704199,0.037637,-0.515146,-0.689437,0.134259,-0.648749,-0.599352,
        0.137290,-0.644213,-0.580531,0.143833,-0.631565,-0.554784,0.144375,
        -0.631381,-0.643107,0.146214,-0.638387,-0.614218,0.151161,-0.631579,
        -0.588983,0.154400,-0.628595,-0.570706,0.138544,-0.620632,-0.667078,
        0.130341,-0.606974,-0.694941,0.115617,-0.581394,-0.709458,0.101476,
        -0.557196,-0.723228,0.087407,-0.532760,-0.719074,0.076246,-0.513260,
        -0.705807,0.066027,-0.495411,-0.695930,-0.107993,-0.652842,-0.573357,
        -0.116632,-0.639504,-0.543413,-0.120161,-0.622743,-0.517514,-0.122735,
        -0.610366,-0.501373,-0.115774,-0.634107,-0.585827,-0.119316,-0.620568,
        -0.555045,-0.122075,-0.608525,-0.526633,-0.123482,-0.600848,-0.508187,
        -0.118467,-0.615196,-0.597138,-0.045601,-0.670963,-0.544032,-0.054279,
        -0.657382,-0.514770,-0.066296,-0.665159,-0.553505,-0.075234,-0.651862,
        -0.523994,-0.083902,-0.636056,-0.495430,-0.092517,-0.617392,-0.467579,
        -0.099203,-0.598619,-0.437745,-0.105694,-0.580033,-0.408088,-0.113524,
        -0.562075,-0.378590,-0.087296,-0.658978,-0.563579,-0.096966,-0.646064,
        -0.533746,-0.107064,-0.630463,-0.506027,-0.121778,-0.610718,-0.481717,
        -0.127709,-0.590751,-0.448897,-0.132792,-0.572293,-0.418190,-0.136995,
        -0.553805,-0.388640,-0.140174,-0.535787,-0.362609,-0.121878,-0.602799,
        -0.564920,-0.124586,-0.590740,-0.532875,-0.126262,-0.582705,-0.500020,
        -0.130974,-0.562419,-0.465870,-0.135127,-0.545381,-0.434130,-0.139028,
        -0.529779,-0.403543,-0.142471,-0.516774,-0.375741,-0.121313,-0.595506,
        -0.607894,-0.125054,-0.581032,-0.576091,-0.128100,-0.565793,-0.544203,
        -0.130168,-0.551966,-0.511848,-0.133376,-0.536397,-0.478894,-0.137210,
        -0.522202,-0.446617,-0.140908,-0.508939,-0.414657,-0.124587,-0.573514,
        -0.618719,-0.128535,-0.557395,-0.587462,-0.131479,-0.541801,-0.555437,
        -0.133509,-0.528247,-0.522921,-0.010977,-0.664616,-0.498050,-0.020762,
        -0.652732,-0.467643,-0.028491,-0.636331,-0.438430,-0.023851,-0.676823,
        -0.534840,-0.033259,-0.662949,-0.505607,-0.041445,-0.646799,-0.476948,
        -0.048124,-0.629328,-0.447988,-0.055284,-0.612475,-0.418518,-0.063398,
        -0.594962,-0.388776,-0.071855,-0.577334,-0.359219,-0.080044,-0.558263,
        -0.329989,-0.062460,-0.641474,-0.486082,-0.069651,-0.623118,-0.457511,
        -0.076553,-0.604671,-0.428372,-0.084580,-0.587217,-0.398651,-0.092980,
        -0.569597,-0.369037,-0.101243,-0.550641,-0.339820,-0.123141,-0.543185,
        -0.350671,-0.144456,-0.497396,-0.382938,-0.135531,-0.514757,-0.489760,
        -0.139126,-0.501155,-0.457556,-0.142896,-0.487257,-0.425713,-0.146817,
        -0.472752,-0.394539,-0.134442,-0.520758,-0.565393,-0.136425,-0.507529,
        -0.532948,-0.138457,-0.493961,-0.500305,-0.141147,-0.479236,-0.468559,
        -0.145091,-0.463756,-0.437455,-0.149083,-0.448019,-0.407742,0.021729,
        -0.667798,-0.521595,0.012148,-0.658852,-0.493062,0.003529,-0.646782,
        -0.462979,-0.004923,-0.633055,-0.432779,-0.012979,-0.619091,-0.402221,
        -0.020761,-0.604681,-0.370848,-0.028891,-0.590357,-0.339542,-0.037101,
        -0.573319,-0.309433,0.001227,-0.673728,-0.528233,-0.035753,-0.619462,
        -0.409057,-0.043475,-0.602082,-0.379110,-0.051483,-0.584617,-0.349339,
        -0.059216,-0.565607,-0.320087,0.047230,-0.660411,-0.519074,0.040912,
        -0.652241,-0.488364,0.033460,-0.639651,-0.457637,0.023337,-0.626127,
        -0.427341,0.014168,-0.612375,-0.396876,0.005694,-0.598078,-0.366114,
        -0.002588,-0.583332,-0.335512,-0.010918,-0.567865,-0.305074,0.078604,
        -0.618383,-0.437559,0.070816,-0.610821,-0.416416,0.061602,-0.598754,
        -0.388410,0.052422,-0.584658,-0.358680,0.043713,-0.570140,-0.328341,
        0.035332,-0.554698,-0.297964,0.078568,-0.653979,-0.516426,0.073738,
        -0.645134,-0.484182,0.068130,-0.631233,-0.451410,0.050942,-0.618844,
        -0.421847,0.039604,-0.605294,-0.392324,0.030125,-0.591041,-0.362190,
        0.021419,-0.576490,-0.331790,0.013082,-0.561083,-0.301468,0.097869,
        -0.608746,-0.440392,0.091963,-0.598538,-0.416410,0.084467,-0.586509,
        -0.387637,0.076570,-0.573613,-0.357062,0.068689,-0.560365,-0.325885,
        0.060370,-0.545467,-0.295151,0.109999,-0.641422,-0.516558,0.105457,
        -0.632478,-0.485126,0.099790,-0.619015,-0.460024,0.124431,-0.593959,
        -0.441664,0.118401,-0.583228,-0.416637,0.111211,-0.570898,-0.387610,
        0.103609,-0.557886,-0.356965,0.095887,-0.544578,-0.325740,0.087376,
        -0.529664,-0.294868,0.130147,-0.606545,-0.522495,0.135591,-0.615762,
        -0.486149,0.129280,-0.603667,-0.462540,-0.212734,-0.494184,-0.058268,
        -0.213548,-0.497341,-0.106238,-0.211207,-0.499581,-0.082844,-0.222427,
        -0.479799,-0.150652,-0.218293,-0.488384,-0.127972,-0.227384,-0.462321,
        -0.194607,-0.225712,-0.470684,-0.174024,-0.236214,-0.435285,-0.202429,
        -0.247877,-0.413308,-0.221788,-0.268500,-0.418234,-0.209140,-0.264662,
        -0.398837,-0.249617,-0.285042,-0.401670,-0.235817,-0.173370,-0.503000,
        -0.086226,-0.179635,-0.484693,-0.060433,-0.177289,-0.492607,-0.109866,
        -0.187517,-0.469621,-0.152005,-0.182751,-0.480542,-0.130217,-0.139117,
        -0.519805,-0.347685,-0.196702,-0.452101,-0.198769,-0.191023,-0.460632,
        -0.175223,-0.142867,-0.508588,-0.356377,-0.207866,-0.419490,-0.207799,
        -0.224128,-0.407478,-0.235501,-0.222406,-0.392998,-0.278187,-0.243647,
        -0.395897,-0.263870,-0.116765,-0.493998,-0.071207,-0.126497,-0.480218,
        -0.051987,-0.133272,-0.503988,-0.086063,-0.147966,-0.484658,-0.059143,
        -0.147527,-0.475307,-0.134781,-0.139990,-0.487892,-0.113344,-0.106898,
        -0.526300,-0.313501,-0.154401,-0.449121,-0.178588,-0.154016,-0.462822,
        -0.155936,-0.130881,-0.515076,-0.329877,-0.128681,-0.486619,-0.299946,
        -0.130226,-0.461332,-0.272511,-0.147614,-0.454691,-0.243071,-0.159410,
        -0.437607,-0.208661,-0.144158,-0.489171,-0.348871,-0.140513,-0.463355,
        -0.316594,-0.139026,-0.438329,-0.286332,-0.166227,-0.439109,-0.259615,
        -0.185341,-0.437296,-0.237957,-0.150002,-0.456852,-0.364108,-0.149448,
        -0.432904,-0.335079,-0.146958,-0.406185,-0.300881,-0.168033,-0.393542,
        -0.268812,-0.198556,-0.401135,-0.250505,-0.152750,-0.432612,-0.382256,
        -0.155125,-0.414069,-0.363924,-0.177088,-0.385053,-0.310907,-0.199869,
        -0.389306,-0.294140,-0.092626,-0.495350,-0.072186,-0.098324,-0.478571,
        -0.048542,-0.044269,-0.551763,-0.281218,-0.105456,-0.480852,-0.120939,
        -0.096469,-0.494672,-0.097317,-0.065659,-0.544249,-0.291433,-0.069459,
        -0.519922,-0.264897,-0.074342,-0.497522,-0.238663,-0.091173,-0.457566,
        -0.157401,-0.117770,-0.468565,-0.142431,-0.087170,-0.536533,-0.301439,
        -0.089157,-0.509035,-0.276738,-0.093750,-0.485630,-0.250054,-0.096251,
        -0.458432,-0.222448,-0.110708,-0.442533,-0.184202,-0.128320,-0.458649,
        -0.159845,-0.108423,-0.498279,-0.288216,-0.112545,-0.473464,-0.262059,
        -0.115286,-0.446531,-0.235132,-0.124878,-0.429746,-0.206723,-0.151640,
        -0.412423,-0.332789,-0.150484,-0.401615,-0.318185,-0.155461,-0.395354,
        -0.347736,-0.159132,-0.380643,-0.327846,-0.009895,-0.514462,-0.206915,
        -0.020512,-0.504989,-0.174275,-0.034469,-0.495411,-0.142485,-0.056849,
        -0.484355,-0.109693,-0.062425,-0.496282,-0.072329,-0.062351,-0.476884,
        -0.044736,-0.019354,-0.550658,-0.275030,-0.027115,-0.532483,-0.245296,
        -0.035015,-0.517410,-0.215022,-0.042912,-0.499229,-0.186647,-0.052449,
        -0.480560,-0.159320,-0.073917,-0.470623,-0.134089,-0.050513,-0.530131,
        -0.253256,-0.055727,-0.507814,-0.227115,-0.060337,-0.484566,-0.202051,
        -0.069722,-0.466989,-0.177825,-0.078065,-0.473787,-0.214491,-0.083513,
        -0.456334,-0.193210,0.027027,-0.537898,-0.267391,0.019475,-0.520057,
        -0.235327,0.014898,-0.512142,-0.196717,-0.002659,-0.522453,-0.161975,
        -0.014061,-0.503631,-0.133579,-0.035997,-0.458770,-0.040846,0.004807,
        -0.544437,-0.271161,-0.002746,-0.526482,-0.240443,0.051549,-0.528029,
        -0.264946,0.043679,-0.509631,-0.234414,0.045395,-0.520159,-0.200725,
        0.019727,-0.458651,-0.096742,0.009269,-0.451969,-0.074992,-0.007408,
        -0.443239,-0.048043,0.077653,-0.512101,-0.264501,0.068285,-0.494121,
        -0.234308,0.077259,-0.513112,-0.202074,0.044959,-0.457525,-0.122232,
        0.036444,-0.439716,-0.109789,0.027083,-0.425946,-0.084608,0.016281,
        -0.411553,-0.056648,-0.105447,-0.590366,-0.704904,-0.114370,-0.579109,
        -0.686625,-0.125263,-0.563687,-0.662062,-0.081622,-0.581114,-0.701090,
        -0.088057,-0.567860,-0.681033,-0.095743,-0.552059,-0.657117,-0.053229,
        -0.567617,-0.693236,-0.059599,-0.555195,-0.674318,-0.068322,-0.537480,
        -0.653316,-0.032203,-0.534500,-0.675479,-0.042659,-0.515065,-0.656612,
        -0.002653,-0.515073,-0.675990,-0.013238,-0.495227,-0.657718,0.028385,
        -0.497649,-0.675619,0.016497,-0.476459,-0.664028,0.055288,-0.476595,
        -0.685536,0.043505,-0.456071,-0.674160,0.031925,-0.436122,-0.663033,
        -0.128605,-0.549657,-0.630440,-0.131851,-0.534899,-0.598193,-0.104351,
        -0.534326,-0.630283,-0.118598,-0.513369,-0.605132,-0.127983,-0.497037,
        -0.575171,-0.133974,-0.482744,-0.543956,-0.140258,-0.468617,-0.512557,
        -0.144084,-0.454844,-0.480650,-0.147265,-0.440561,-0.449087,-0.151005,
        -0.426678,-0.419615,-0.080623,-0.515455,-0.631635,-0.094053,-0.494342,
        -0.607517,-0.102772,-0.478429,-0.578095,-0.110968,-0.463254,-0.548169,
        -0.117820,-0.449458,-0.516434,-0.124022,-0.434989,-0.484629,-0.127042,
        -0.418851,-0.451867,-0.126994,-0.398938,-0.418440,-0.106736,-0.396016,
        -0.451196,-0.139935,-0.366387,-0.437669,-0.163151,-0.332606,-0.447340,
        -0.182559,-0.307802,-0.463257,-0.197999,-0.281543,-0.478839,-0.211451,
        -0.252926,-0.492316,-0.224293,-0.224089,-0.506431,-0.055464,-0.493664,
        -0.634978,-0.069082,-0.476236,-0.608994,-0.079078,-0.461523,-0.579853,
        -0.089019,-0.446548,-0.550425,-0.098265,-0.432128,-0.518829,-0.104584,
        -0.417011,-0.485840,-0.069812,-0.432445,-0.551332,-0.079851,-0.416307,
        -0.520294,-0.085498,-0.399918,-0.486818,-0.107435,-0.375216,-0.474450,
        -0.129895,-0.351551,-0.469523,-0.143772,-0.324033,-0.466816,-0.159249,
        -0.298378,-0.473767,-0.174401,-0.272197,-0.485851,-0.188906,-0.244326,
        -0.498843,-0.202458,-0.215490,-0.512418,-0.214718,-0.185503,-0.526706,
        -0.027375,-0.470899,-0.638425,-0.046824,-0.459801,-0.609925,-0.059107,
        -0.446931,-0.580889,-0.020603,-0.452365,-0.629679,-0.029701,-0.444012,
        -0.609081,-0.039919,-0.431400,-0.581894,-0.049680,-0.416456,-0.552291,
        -0.058335,-0.399640,-0.521566,-0.072466,-0.377667,-0.501042,-0.090574,
        -0.354489,-0.492558,-0.106059,-0.331513,-0.485305,-0.118736,-0.304701,
        -0.475690,-0.136003,-0.284943,-0.482853,-0.149199,-0.261065,-0.493931,
        -0.162714,-0.233630,-0.506789,-0.176791,-0.205176,-0.520119,-0.190443,
        -0.175939,-0.533891,0.004346,-0.455507,-0.652348,-0.000662,-0.439789,
        -0.636065,-0.007979,-0.427151,-0.612072,-0.016853,-0.412751,-0.584135,
        -0.026923,-0.396057,-0.555653,-0.036571,-0.378662,-0.528183,-0.049874,
        -0.357543,-0.511660,-0.065215,-0.334794,-0.504475,-0.076309,-0.310295,
        -0.485887,-0.096640,-0.279697,-0.490175,-0.118772,-0.272093,-0.491078,
        -0.104410,-0.245621,-0.506053,-0.126255,-0.250758,-0.501374,-0.114911,
        -0.215038,-0.520812,-0.137297,-0.223201,-0.514525,-0.149791,-0.194531,
        -0.528113,-0.162067,-0.165135,-0.542096,0.024758,-0.421812,-0.641766,
        0.016134,-0.406690,-0.616806,0.006227,-0.389964,-0.589640,-0.003861,
        -0.372866,-0.561917,-0.013148,-0.356690,-0.535995,-0.025122,-0.336766,
        -0.522217,-0.035690,-0.317916,-0.506787,-0.048941,-0.293681,-0.492309,
        -0.065929,-0.265342,-0.501563,-0.080102,-0.235812,-0.513367,-0.093925,
        -0.207059,-0.526874,-0.105925,-0.181001,-0.539165,-0.124802,-0.185768,
        -0.534952,-0.113040,-0.163238,-0.547642,-0.129660,-0.155447,-0.550102,
        -0.280604,-0.375505,-0.270392,-0.276852,-0.349318,-0.304647,-0.297796,
        -0.351949,-0.290811,-0.294441,-0.325496,-0.325195,-0.315516,-0.328265,
        -0.311123,-0.312145,-0.302063,-0.346109,-0.333151,-0.304457,-0.331630,
        -0.330773,-0.281762,-0.368812,-0.350576,-0.281417,-0.352433,-0.328727,
        -0.259585,-0.405424,-0.348049,-0.259477,-0.389335,-0.345180,-0.235590,
        -0.424818,-0.364484,-0.235585,-0.408603,-0.361676,-0.211595,-0.444177,
        -0.381011,-0.211606,-0.427913,-0.239354,-0.369973,-0.298074,-0.260153,
        -0.372760,-0.284119,-0.255937,-0.346602,-0.318573,-0.254325,-0.323087,
        -0.355746,-0.273629,-0.322885,-0.339524,-0.273212,-0.302665,-0.378457,
        -0.292568,-0.302371,-0.362366,-0.292021,-0.282576,-0.400597,-0.311300,
        -0.282149,-0.384825,-0.290611,-0.259837,-0.437107,-0.309624,-0.259742,
        -0.421260,-0.307288,-0.235627,-0.456611,-0.326208,-0.235604,-0.440742,
        -0.323965,-0.211621,-0.475833,-0.342770,-0.211592,-0.460070,-0.153723,
        -0.417091,-0.397243,-0.196551,-0.363364,-0.328617,-0.217974,-0.366701,
        -0.312923,-0.196240,-0.343269,-0.367218,-0.216272,-0.343462,-0.349616,
        -0.235334,-0.343631,-0.332895,-0.215789,-0.322851,-0.389350,-0.235346,
        -0.322980,-0.372278,-0.235174,-0.302730,-0.411057,-0.254150,-0.302799,
        -0.394600,-0.235899,-0.282725,-0.448594,-0.254510,-0.282798,-0.432446,
        -0.273056,-0.282806,-0.416474,-0.252714,-0.259831,-0.468963,-0.271839,
        -0.259790,-0.452947,-0.268522,-0.235162,-0.487697,-0.288366,-0.235732,
        -0.472367,-0.284147,-0.208863,-0.504768,-0.304484,-0.210759,-0.490735,
        -0.151873,-0.391447,-0.391137,-0.164743,-0.373648,-0.367365,-0.177091,
        -0.362795,-0.346445,-0.167015,-0.360944,-0.411990,-0.175600,-0.345399,
        -0.385334,-0.185690,-0.334685,-0.430073,-0.196072,-0.323081,-0.405873,
        -0.197917,-0.303087,-0.442429,-0.216532,-0.302745,-0.427065,-0.217140,
        -0.282891,-0.464417,-0.232861,-0.259444,-0.484602,-0.246748,-0.232329,
        -0.501210,-0.260630,-0.203132,-0.515487,-0.236728,-0.194164,-0.521145,
        -0.593971,-0.483579,0.144125,-0.598897,-0.482213,0.107134,-0.601542,
        -0.482513,0.128063,-0.608425,-0.474968,0.101121,-0.609529,-0.466837,
        0.117987,-0.577645,-0.485032,0.145451,-0.553449,-0.486905,0.028454,
        -0.566280,-0.483873,0.060630,-0.580497,-0.483472,0.093629,-0.575370,
        -0.484609,0.120931,-0.554300,-0.489444,-0.032385,-0.563565,-0.486217,
        -0.011269,-0.576453,-0.481903,0.017774,-0.596056,-0.480961,0.047924,
        -0.605655,-0.468416,0.081981,-0.609563,-0.448855,0.107561,-0.572265,
        -0.484029,-0.048379,-0.589102,-0.479695,-0.025973,-0.597359,-0.466756,
        0.002775,-0.598316,-0.449489,0.033167,-0.603701,-0.435266,0.063290,
        -0.609087,-0.421390,0.088377,-0.584525,-0.458526,-0.062475,-0.590688,
        -0.446823,-0.038276,-0.592049,-0.431198,-0.011135,-0.597926,-0.417016,
        0.016803,-0.604868,-0.403614,0.044511,-0.616117,-0.393723,0.068415,
        -0.601577,-0.483246,0.157127,-0.613850,-0.473800,0.148814,-0.613087,
        -0.459194,0.135457,-0.591374,-0.483999,0.174775,-0.583150,-0.463049,
        0.184469,-0.604785,-0.458652,0.161368,-0.586864,-0.447151,0.169341,
        -0.610136,-0.435438,0.139345,-0.590589,-0.433924,0.156171,-0.614262,
        -0.407472,0.112129,-0.621326,-0.381293,0.089352,-0.705217,-0.293593,
        -0.103104,-0.709388,-0.289968,-0.093540,-0.715961,-0.282062,-0.114796,
        -0.718452,-0.273428,-0.099447,-0.733910,-0.263069,-0.129834,-0.736241,
        -0.247867,-0.104718,-0.748903,-0.224708,-0.082659,-0.734857,-0.241905,
        -0.163602,-0.748164,-0.235933,-0.144862,-0.758154,-0.225229,-0.121554,
        -0.764869,-0.207156,-0.096597,-0.771887,-0.189251,-0.073349,-0.583742,
        -0.419231,-0.069179,-0.591503,-0.411342,-0.050470,-0.602417,-0.401735,
        -0.027478,-0.614743,-0.390907,-0.001140,-0.626872,-0.380316,0.025836,
        -0.638377,-0.370250,0.051096,-0.613743,-0.387788,-0.069462,-0.624682,
        -0.378190,-0.045894,-0.636625,-0.367753,-0.019478,-0.648359,-0.357548,
        0.007313,-0.649941,-0.343576,0.030436,-0.634404,-0.365744,-0.089783,
        -0.646103,-0.355472,-0.064696,-0.658031,-0.345079,-0.037784,-0.669914,
        -0.334794,-0.009850,-0.654138,-0.312999,0.007907,-0.638331,-0.348415,
        -0.131143,-0.653649,-0.342570,-0.109253,-0.667884,-0.332386,-0.083579,
        -0.679901,-0.321936,-0.056148,-0.678415,-0.304062,-0.029289,-0.664654,
        -0.281793,-0.009816,-0.655627,-0.325979,-0.151850,-0.672847,-0.318908,
        -0.128679,-0.691657,-0.307217,-0.103727,-0.703417,-0.297073,-0.075512,
        -0.689143,-0.271979,-0.047355,-0.693744,-0.255820,-0.013855,-0.673011,
        -0.303690,-0.171917,-0.689831,-0.296909,-0.148921,-0.705849,-0.289944,
        -0.128475,-0.710154,-0.264871,-0.083283,-0.714242,-0.252337,-0.058681,
        -0.720782,-0.236079,-0.030071,-0.676804,-0.286246,-0.212383,-0.691387,
        -0.280785,-0.191246,-0.707431,-0.274733,-0.168116,-0.721881,-0.268990,
        -0.148122,-0.727135,-0.250188,-0.086993,-0.734481,-0.236949,-0.069090,
        -0.743180,-0.219371,-0.044140,-0.690124,-0.257370,-0.227863,-0.704654,
        -0.252664,-0.207091,-0.720633,-0.247413,-0.184335,-0.758805,-0.202639,
        -0.059066,-0.777875,-0.174496,-0.057731,-0.627693,-0.355042,0.066340,
        -0.707817,-0.233275,0.012468,-0.717013,-0.215168,0.039226,-0.724501,
        -0.199344,0.064077,-0.731005,-0.187380,0.080617,-0.729471,-0.217851,
        -0.001615,-0.736840,-0.200829,0.026944,-0.742946,-0.185675,0.053585,
        -0.746074,-0.172759,0.077220,-0.751010,-0.199135,-0.017453,-0.756664,
        -0.181094,0.011698,-0.759673,-0.163819,0.039140,-0.761155,-0.148981,
        0.063093,-0.771627,-0.176881,-0.036742,-0.773789,-0.157014,-0.005406,
        -0.775706,-0.139000,0.023189,-0.777242,-0.123517,0.048222,-0.268509,
        -0.499489,0.112842,-0.229500,-0.511896,0.070115,-0.236884,-0.506274,
        0.090966,-0.245620,-0.495516,0.118141,-0.253401,-0.480957,0.145918,
        -0.259446,-0.464448,0.171348,-0.262674,-0.450672,0.189513,-0.325028,
        -0.402864,0.309459,-0.305885,-0.394278,0.308973,-0.306117,-0.384324,
        0.331065,-0.514027,-0.494260,0.122198,-0.523481,-0.489985,0.155034,
        -0.509642,-0.501690,0.046299,-0.523384,-0.494072,0.079608,-0.542382,
        -0.487282,0.113172,-0.550486,-0.487454,0.147807,-0.512819,-0.500483,
        -0.016889,-0.521623,-0.499984,0.006802,-0.532166,-0.494059,0.037500,
        -0.543561,-0.487518,0.068046,-0.554847,-0.485668,0.092268,-0.519773,
        -0.495610,-0.063720,-0.528549,-0.495286,-0.037567,-0.542445,-0.493445,
        -0.003962,-0.534940,-0.486325,-0.082017,-0.553253,-0.487498,-0.064555,
        -0.541544,-0.452474,-0.089383,-0.562643,-0.455939,-0.076096,-0.480746,
        -0.493233,0.184156,-0.470587,-0.500618,0.074528,-0.479069,-0.497518,
        0.097731,-0.488114,-0.490912,0.128441,-0.493065,-0.490198,0.164237,
        -0.465264,-0.512089,-0.015329,-0.473958,-0.511711,0.018955,-0.480926,
        -0.504322,0.055271,-0.499732,-0.500229,0.089049,-0.491597,-0.505592,
        -0.016848,-0.499389,-0.505779,0.013323,-0.499700,-0.499852,-0.072314,
        -0.493313,-0.503244,-0.045155,-0.491624,-0.482347,-0.106501,-0.513412,
        -0.483966,-0.094331,-0.500417,-0.446432,-0.115170,-0.520894,-0.449159,
        -0.102375,-0.459020,-0.485376,0.183391,-0.447289,-0.499376,0.072782,
        -0.453767,-0.487512,0.099162,-0.460013,-0.480377,0.128755,-0.460488,
        -0.486602,0.159378,-0.417864,-0.520613,-0.061727,-0.427866,-0.519743,
        -0.039361,-0.438517,-0.517810,-0.008540,-0.445610,-0.507692,0.019558,
        -0.446488,-0.503483,0.046356,-0.430130,-0.515998,-0.082369,-0.457656,
        -0.511265,-0.053328,-0.456546,-0.508003,-0.104958,-0.476775,-0.504482,
        -0.085269,-0.469938,-0.478749,-0.119372,-0.479911,-0.443430,-0.127563,
        -0.435095,-0.458215,0.180278,-0.382795,-0.512432,-0.015167,-0.391671,
        -0.506191,0.007072,-0.410563,-0.502567,0.037383,-0.416657,-0.491440,
        0.070850,-0.423651,-0.479869,0.100654,-0.431259,-0.464936,0.127167,
        -0.435593,-0.456001,0.153113,-0.393193,-0.524745,-0.062498,-0.395685,
        -0.521250,-0.032155,-0.412215,-0.511948,-0.003541,-0.422848,-0.506449,
        0.018096,-0.396108,-0.520801,-0.088224,-0.344917,-0.504222,0.032265,
        -0.352177,-0.491087,0.051449,-0.360511,-0.481006,0.078843,-0.406411,
        -0.435531,0.174972,-0.357482,-0.509434,-0.016822,-0.359012,-0.503511,
        0.013785,-0.376354,-0.500955,0.045360,-0.385899,-0.492472,0.076839,
        -0.393379,-0.480768,0.105641,-0.398795,-0.469874,0.129744,-0.399834,
        -0.456822,0.151294,-0.359782,-0.520305,-0.066422,-0.359492,-0.519385,
        -0.040714,-0.311570,-0.488498,0.095432,-0.320792,-0.503255,0.031772,
        -0.327405,-0.492326,0.057698,-0.336055,-0.484722,0.087275,-0.346162,
        -0.468162,0.114363,-0.363851,-0.443354,0.139467,-0.369764,-0.443299,