! Generated by BlenderFDS 5.0.0 on Blender 2.82 (sub 7)
! File: <.../verification/geometry/Blender_Input_Files/geometry.blend>
! Blender Scene: <geom_modifiers>
! Date: <Tue, 07 Apr 2020, 17:44:48>
&HEAD CHID='geom_modifiers'
      TITLE='Test geom w modifiers' /
&TIME T_END=1.0 /

! --- Boundary conditions from Blender Materials
&SURF ID='Material'
      RGB=91,204,120
      TRANSPARENCY=1.00 /
&SURF ID='Material.001'
      RGB=255,0,0
      TRANSPARENCY=1.00 /
&SURF ID='Material.002'
      RGB=0,16,204
      TRANSPARENCY=1.00 /

! --- Geometric namelists from Blender Collection <Master Collection>
! Cell Size: 0.130 m, 0.100 m, 0.100 m | Qty: 8000 | Aspect: 1.3 | Poisson: Yes
&MESH ID='Domain' IJK=20,20,20
      XB=-1.000000,1.000000,-1.000000,1.000000,-1.000000,1.000000 /
! GEOM: 3456 vertices, 9216 faces, in 0.010 s
&GEOM ID='Double torus' FYI='Double torus w multiple SURFs'
      SURF_ID='INERT','Material','Material.001'
      VERTS=-0.100000, +0.000000, +0.000000,
            -0.110718, -0.125000, +0.216506,
            -0.140000, -0.216506, +0.375000,
            -0.180000, -0.250000, +0.433013,
            -0.220000, -0.216506, +0.375000,
            -0.249282, -0.125000, +0.216506,
            -0.260000, -0.000000, +0.000000,
            -0.249282, +0.125000, -0.216506,
            -0.220000, +0.216506, -0.375000,
            -0.180000, +0.250000, -0.433013,
            -0.140000, +0.216506, -0.375000,
            -0.110718, +0.125000, -0.216506,
            -0.103422, +0.045216, +0.026105,
            -0.114048, -0.080996, +0.241912,
            -0.143080, -0.175812, +0.398495,
            -0.182738, -0.213828, +0.453897,
            -0.222395, -0.184855, +0.393274,
            -0.251427, -0.096659, +0.232869,
            -0.262053, +0.027129, +0.015663,
            -0.251427, +0.153341, -0.200144,
            -0.222395, +0.248157, -0.356726,
            -0.182738, +0.286172, -0.412129,
            -0.143080, +0.257200, -0.351505,
            -0.114048, +0.169004, -0.191101,
            -0.113630, +0.089658, +0.051764,
            -0.123982, -0.037745, +0.266883,
            -0.152267, -0.135815, +0.421587,
            -0.190904, -0.178274, +0.474424,
            -0.229541, -0.153746, +0.411235,
            -0.257825, -0.068803, +0.248952,
            -0.268178, +0.053795, +0.031058,
            -0.257825, +0.181197, -0.184061,
            -0.229541, +0.279267, -0.338765,
            -0.190904, +0.321726, -0.391602,
            -0.152267, +0.297198, -0.328413,
            -0.123982, +0.212255, -0.166130,
            -0.130448, +0.132565, +0.076537,
            -0.140350, +0.004013, +0.290992,
            -0.167403, -0.097197, +0.443883,
            -0.204359, -0.143948, +0.494242,
            -0.241314, -0.123711, +0.428576,
            -0.268367, -0.041909, +0.264479,
            -0.278269, +0.079539, +0.045922,
            -0.268367, +0.208091, -0.168534,
            -0.241314, +0.309302, -0.321424,
            -0.204359, +0.356052, -0.371783,
            -0.167403, +0.335815, -0.306117,
            -0.140350, +0.254013, -0.142020,
            -0.153590, +0.173205, +0.100000,
            -0.162872, +0.043564, +0.313827,
            -0.188231, -0.060622, +0.465000,
            -0.222872, -0.111436, +0.513013,
            -0.257513, -0.095263, +0.445000,
            -0.282872, -0.016436, +0.279186,
            -0.292154, +0.103923, +0.060000,
            -0.282872, +0.233564, -0.153827,
            -0.257513, +0.337750, -0.305000,
            -0.222872, +0.388564, -0.353013,
            -0.188231, +0.372391, -0.285000,
            -0.162872, +0.293564, -0.119186,
            -0.182659, +0.210881, +0.121752,
            -0.191162, +0.080231, +0.334996,
            -0.214393, -0.026713, +0.484577,
            -0.246127, -0.081295, +0.530415,
            -0.277861, -0.068890, +0.460227,
            -0.301092, +0.007179, +0.292820,
            -0.309595, +0.126529, +0.073051,
            -0.301092, +0.257179, -0.140193,
            -0.277861, +0.364123, -0.289773,
            -0.246127, +0.418705, -0.335611,
            -0.214393, +0.406299, -0.265423,
            -0.191162, +0.330231, -0.098016,
            -0.217157, +0.244949, +0.141421,
            -0.224736, +0.113386, +0.354138,
            -0.245442, +0.003948, +0.502279,
            -0.273726, -0.054041, +0.546150,
            -0.302010, -0.045042, +0.473995,
            -0.322716, +0.028533, +0.305149,
            -0.330294, +0.146969, +0.084853,
            -0.322716, +0.278533, -0.127864,
            -0.302010, +0.387971, -0.276005,
            -0.273726, +0.445959, -0.319876,
            -0.245442, +0.436960, -0.247721,
            -0.224736, +0.363386, -0.078874,
            -0.256495, +0.274826, +0.158671,
            -0.263020, +0.142462, +0.370925,
            -0.280846, +0.030837, +0.517804,
            -0.305196, -0.030140, +0.559949,
            -0.329547, -0.024128, +0.486069,
            -0.347373, +0.047259, +0.315960,
            -0.353897, +0.164895, +0.095202,
            -0.347373, +0.297259, -0.117052,
            -0.329547, +0.408884, -0.263931,
            -0.305196, +0.469860, -0.306076,
            -0.280846, +0.463849, -0.232196,
            -0.263020, +0.392462, -0.062087,
            -0.300000, +0.300000, +0.173205,
            -0.305359, +0.166962, +0.385070,
            -0.320000, +0.053494, +0.530885,
            -0.340000, -0.010000, +0.571577,
            -0.360000, -0.006506, +0.496244,
            -0.374641, +0.063038, +0.325070,
            -0.380000, +0.180000, +0.103923,
            -0.374641, +0.313038, -0.107942,
            -0.360000, +0.426506, -0.253756,
            -0.340000, +0.490000, -0.294449,
            -0.320000, +0.486506, -0.219115,
            -0.305359, +0.416962, -0.047942,
            -0.346927, +0.320041, +0.184776,
            -0.351028, +0.186466, +0.396331,
            -0.362234, +0.071531, +0.541298,
            -0.377541, +0.006033, +0.580833,
            -0.392849, +0.007523, +0.504343,
            -0.404054, +0.075600, +0.332323,
            -0.408156, +0.192025, +0.110866,
            -0.404054, +0.325600, -0.100690,
            -0.392849, +0.440535, -0.245657,
            -0.377541, +0.506033, -0.285192,
            -0.362234, +0.504543, -0.208702,
            -0.351028, +0.436466, -0.036682,
            -0.396472, +0.334606, +0.193185,
            -0.399246, +0.200641, +0.404515,
            -0.406825, +0.084640, +0.548867,
            -0.417178, +0.017685, +0.587561,
            -0.427531, +0.017718, +0.510230,
            -0.435109, +0.084730, +0.337594,
            -0.437883, +0.200764, +0.115911,
            -0.435109, +0.334730, -0.095419,
            -0.427531, +0.450731, -0.239770,
            -0.417178, +0.517685, -0.278465,
            -0.406825, +0.517652, -0.201133,
            -0.399246, +0.450641, -0.028498,
            -0.447790, +0.343447, +0.198289,
            -0.449189, +0.209244, +0.409482,
            -0.453011, +0.092596, +0.553460,
            -0.458232, +0.024757, +0.591644,
            -0.463453, +0.023906, +0.513802,
            -0.467275, +0.090271, +0.340793,
            -0.468674, +0.206068, +0.118973,
            -0.467275, +0.340271, -0.092220,
            -0.463453, +0.456919, -0.236198,
            -0.458232, +0.524757, -0.274382,
            -0.453011, +0.525608, -0.196540,
            -0.449189, +0.459244, -0.023531,
            -0.500000, +0.346410, +0.200000,
            -0.500000, +0.212128, +0.411147,
            -0.500000, +0.095263, +0.555000,
            -0.500000, +0.027128, +0.593013,
            -0.500000, +0.025981, +0.515000,
            -0.500000, +0.092128, +0.341865,
            -0.500000, +0.207846, +0.120000,
            -0.500000, +0.342128, -0.091147,
            -0.500000, +0.458993, -0.235000,
            -0.500000, +0.527128, -0.273013,
            -0.500000, +0.528275, -0.195000,
            -0.500000, +0.462128, -0.021865,
            -0.552211, +0.343447, +0.198289,
            -0.550812, +0.209244, +0.409482,
            -0.546990, +0.092596, +0.553460,
            -0.541768, +0.024757, +0.591644,
            -0.536547, +0.023906, +0.513802,
            -0.532725, +0.090271, +0.340793,
            -0.531326, +0.206068, +0.118973,
            -0.532725, +0.340271, -0.092220,
            -0.536547, +0.456919, -0.236198,
            -0.541768, +0.524757, -0.274382,
            -0.546990, +0.525608, -0.196540,
            -0.550812, +0.459244, -0.023531,
            -0.603528, +0.334607, +0.193185,
            -0.600754, +0.200641, +0.404515,
            -0.593175, +0.084640, +0.548867,
            -0.582822, +0.017685, +0.587561,
            -0.572469, +0.017718, +0.510230,
            -0.564891, +0.084730, +0.337594,
            -0.562117, +0.200764, +0.115911,
            -0.564891, +0.334730, -0.095419,
            -0.572469, +0.450731, -0.239770,
            -0.582822, +0.517685, -0.278465,
            -0.593175, +0.517652, -0.201133,
            -0.600754, +0.450641, -0.028498,
            -0.653073, +0.320041, +0.184776,
            -0.648972, +0.186466, +0.396331,
            -0.637766, +0.071531, +0.541298,
            -0.622459, +0.006033, +0.580833,
            -0.607151, +0.007523, +0.504343,
            -0.595946, +0.075600, +0.332323,
            -0.591844, +0.192025, +0.110866,
            -0.595946, +0.325600, -0.100690,
            -0.607151, +0.440535, -0.245657,
            -0.622459, +0.506033, -0.285192,
            -0.637766, +0.504543, -0.208702,
            -0.648972, +0.436466, -0.036682,
            -0.700000, +0.300000, +0.173205,
            -0.694641, +0.166962, +0.385070,
            -0.680000, +0.053494, +0.530885,
            -0.660000, -0.010000, +0.571577,
            -0.640000, -0.006506, +0.496244,
            -0.625359, +0.063038, +0.325070,
            -0.620000, +0.180000, +0.103923,
            -0.625359, +0.313038, -0.107942,
            -0.640000, +0.426506, -0.253756,
            -0.660000, +0.490000, -0.294449,
            -0.680000, +0.486506, -0.219115,
            -0.694641, +0.416962, -0.047942,
            -0.743505, +0.274826, +0.158671,
            -0.736980, +0.142462, +0.370925,
            -0.719154, +0.030837, +0.517804,
            -0.694804, -0.030139, +0.559949,
            -0.670453, -0.024128, +0.486069,
            -0.652627, +0.047259, +0.315960,
            -0.646103, +0.164895, +0.095202,
            -0.652627, +0.297259, -0.117052,
            -0.670453, +0.408884, -0.263931,
            -0.694804, +0.469861, -0.306076,
            -0.719154, +0.463849, -0.232196,
            -0.736980, +0.392462, -0.062087,
            -0.782843, +0.244949, +0.141421,
            -0.775264, +0.113386, +0.354138,
            -0.754559, +0.003948, +0.502279,
            -0.726274, -0.054041, +0.546150,
            -0.697990, -0.045042, +0.473995,
            -0.677284, +0.028533, +0.305149,
            -0.669706, +0.146969, +0.084853,
            -0.677284, +0.278533, -0.127864,
            -0.697990, +0.387971, -0.276005,
            -0.726274, +0.445959, -0.319876,
            -0.754559, +0.436960, -0.247721,
            -0.775264, +0.363386, -0.078874,
            -0.817341, +0.210881, +0.121752,
            -0.808838, +0.080231, +0.334996,
            -0.785607, -0.026713, +0.484577,
            -0.753873, -0.081295, +0.530415,
            -0.722139, -0.068890, +0.460227,
            -0.698908, +0.007179, +0.292820,
            -0.690405, +0.126529, +0.073051,
            -0.698908, +0.257179, -0.140193,
            -0.722139, +0.364123, -0.289773,
            -0.753873, +0.418705, -0.335611,
            -0.785607, +0.406299, -0.265423,
            -0.808838, +0.330231, -0.098016,
            -0.846410, +0.173205, +0.100000,
            -0.837128, +0.043564, +0.313827,
            -0.811769, -0.060622, +0.465000,
            -0.777128, -0.111436, +0.513013,
            -0.742487, -0.095263, +0.445000,
            -0.717128, -0.016436, +0.279186,
            -0.707846, +0.103923, +0.060000,
            -0.717128, +0.233564, -0.153827,
            -0.742487, +0.337750, -0.305000,
            -0.777128, +0.388564, -0.353013,
            -0.811769, +0.372391, -0.285000,
            -0.837128, +0.293564, -0.119186,
            -0.869552, +0.132565, +0.076537,
            -0.859650, +0.004013, +0.290992,
            -0.832597, -0.097197, +0.443883,
            -0.795641, -0.143948, +0.494242,
            -0.758686, -0.123711, +0.428576,
            -0.731633, -0.041909, +0.264479,
            -0.721731, +0.079539, +0.045922,
            -0.731633, +0.208091, -0.168534,
            -0.758686, +0.309302, -0.321424,
            -0.795641, +0.356052, -0.371783,
            -0.832597, +0.335815, -0.306117,
            -0.859650, +0.254013, -0.142020,
            -0.886370, +0.089658, +0.051764,
            -0.876018, -0.037745, +0.266883,
            -0.847733, -0.135815, +0.421587,
            -0.809096, -0.178274, +0.474424,
            -0.770459, -0.153746, +0.411235,
            -0.742175, -0.068803, +0.248952,
            -0.731822, +0.053795, +0.031058,
            -0.742175, +0.181197, -0.184061,
            -0.770459, +0.279267, -0.338765,
            -0.809096, +0.321726, -0.391602,
            -0.847733, +0.297198, -0.328413,
            -0.876018, +0.212255, -0.166130,
            -0.896578, +0.045216, +0.026105,
            -0.885952, -0.080996, +0.241912,
            -0.856920, -0.175812, +0.398495,
            -0.817262, -0.213827, +0.453897,
            -0.777605, -0.184855, +0.393274,
            -0.748573, -0.096659, +0.232869,
            -0.737947, +0.027129, +0.015663,
            -0.748573, +0.153341, -0.200144,
            -0.777605, +0.248157, -0.356726,
            -0.817262, +0.286173, -0.412128,
            -0.856920, +0.257200, -0.351505,
            -0.885952, +0.169004, -0.191101,
            -0.900000, +0.000000, +0.000000,
            -0.889282, -0.125000, +0.216506,
            -0.860000, -0.216506, +0.375000,
            -0.820000, -0.250000, +0.433013,
            -0.780000, -0.216506, +0.375000,
            -0.750718, -0.125000, +0.216506,
            -0.740000, +0.000000, +0.000000,
            -0.750718, +0.125000, -0.216506,
            -0.780000, +0.216506, -0.375000,
            -0.820000, +0.250000, -0.433013,
            -0.860000, +0.216506, -0.375000,
            -0.889282, +0.125000, -0.216506,
            -0.896578, -0.045216, -0.026105,
            -0.885952, -0.169004, +0.191101,
            -0.856920, -0.257200, +0.351505,
            -0.817262, -0.286173, +0.412128,
            -0.777605, -0.248157, +0.356726,
            -0.748573, -0.153341, +0.200144,
            -0.737947, -0.027129, -0.015663,
            -0.748573, +0.096659, -0.232869,
            -0.777605, +0.184855, -0.393274,
            -0.817262, +0.213827, -0.453897,
            -0.856920, +0.175812, -0.398495,
            -0.885952, +0.080996, -0.241912,
            -0.886370, -0.089658, -0.051764,
            -0.876018, -0.212255, +0.166130,
            -0.847733, -0.297198, +0.328413,
            -0.809096, -0.321726, +0.391602,
            -0.770459, -0.279267, +0.338765,
            -0.742175, -0.181197, +0.184061,
            -0.731822, -0.053795, -0.031058,
            -0.742175, +0.068803, -0.248952,
            -0.770459, +0.153746, -0.411235,
            -0.809096, +0.178274, -0.474424,
            -0.847733, +0.135815, -0.421587,
            -0.876018, +0.037745, -0.266883,
            -0.869552, -0.132565, -0.076537,
            -0.859650, -0.254013, +0.142021,
            -0.832597, -0.335815, +0.306117,
            -0.795641, -0.356052, +0.371783,
            -0.758686, -0.309302, +0.321424,
            -0.731633, -0.208091, +0.168534,
            -0.721731, -0.079539, -0.045922,
            -0.731633, +0.041909, -0.264479,
            -0.758686, +0.123711, -0.428576,
            -0.795641, +0.143948, -0.494242,
            -0.832597, +0.097198, -0.443883,
            -0.859650, -0.004013, -0.290992,
            -0.846410, -0.173205, -0.100000,
            -0.837128, -0.293564, +0.119186,
            -0.811769, -0.372391, +0.285000,
            -0.777128, -0.388564, +0.353013,
            -0.742487, -0.337750, +0.305000,
            -0.717128, -0.233564, +0.153827,
            -0.707846, -0.103923, -0.060000,
            -0.717128, +0.016436, -0.279186,
            -0.742487, +0.095263, -0.445000,
            -0.777128, +0.111436, -0.513013,
            -0.811769, +0.060622, -0.465000,
            -0.837128, -0.043564, -0.313827,
            -0.817341, -0.210881, -0.121752,
            -0.808838, -0.330231, +0.098016,
            -0.785607, -0.406299, +0.265423,
            -0.753873, -0.418705, +0.335611,
            -0.722139, -0.364123, +0.289773,
            -0.698908, -0.257179, +0.140193,
            -0.690405, -0.126529, -0.073051,
            -0.698908, -0.007179, -0.292820,
            -0.722139, +0.068890, -0.460227,
            -0.753873, +0.081295, -0.530415,
            -0.785607, +0.026713, -0.484577,
            -0.808838, -0.080231, -0.334996,
            -0.782843, -0.244949, -0.141421,
            -0.775264, -0.363386, +0.078874,
            -0.754559, -0.436960, +0.247721,
            -0.726274, -0.445959, +0.319876,
            -0.697990, -0.387971, +0.276005,
            -0.677284, -0.278533, +0.127864,
            -0.669706, -0.146969, -0.084853,
            -0.677284, -0.028533, -0.305149,
            -0.697990, +0.045042, -0.473995,
            -0.726274, +0.054041, -0.546150,
            -0.754559, -0.003948, -0.502279,
            -0.775264, -0.113386, -0.354138,
            -0.743505, -0.274826, -0.158671,
            -0.736980, -0.392462, +0.062087,
            -0.719154, -0.463849, +0.232196,
            -0.694804, -0.469860, +0.306076,
            -0.670453, -0.408884, +0.263931,
            -0.652628, -0.297259, +0.117052,
            -0.646103, -0.164895, -0.095202,
            -0.652628, -0.047259, -0.315960,
            -0.670453, +0.024128, -0.486069,
            -0.694804, +0.030140, -0.559949,
            -0.719154, -0.030837, -0.517804,
            -0.736980, -0.142462, -0.370925,
            -0.700000, -0.300000, -0.173205,
            -0.694641, -0.416962, +0.047942,
            -0.680000, -0.486506, +0.219115,
            -0.660000, -0.490000, +0.294449,
            -0.640000, -0.426506, +0.253756,
            -0.625359, -0.313038, +0.107942,
            -0.620000, -0.180000, -0.103923,
            -0.625359, -0.063038, -0.325070,
            -0.640000, +0.006506, -0.496244,
            -0.660000, +0.010000, -0.571577,
            -0.680000, -0.053494, -0.530885,
            -0.694641, -0.166962, -0.385070,
            -0.653073, -0.320041, -0.184776,
            -0.648972, -0.436466, +0.036682,
            -0.637766, -0.504543, +0.208702,
            -0.622459, -0.506033, +0.285192,
            -0.607151, -0.440535, +0.245657,
            -0.595946, -0.325600, +0.100690,
            -0.591844, -0.192025, -0.110866,
            -0.595946, -0.075600, -0.332323,
            -0.607151, -0.007523, -0.504343,
            -0.622459, -0.006033, -0.580833,
            -0.637766, -0.071531, -0.541298,
            -0.648972, -0.186466, -0.396331,
            -0.603528, -0.334606, -0.193185,
            -0.600754, -0.450641, +0.028498,
            -0.593175, -0.517652, +0.201133,
            -0.582822, -0.517685, +0.278465,
            -0.572469, -0.450731, +0.239770,
            -0.564891, -0.334730, +0.095419,
            -0.562117, -0.200764, -0.115911,
            -0.564891, -0.084730, -0.337594,
            -0.572469, -0.017718, -0.510230,
            -0.582822, -0.017685, -0.587561,
            -0.593175, -0.084640, -0.548867,
            -0.600754, -0.200641, -0.404515,
            -0.552211, -0.343447, -0.198289,
            -0.550812, -0.459244, +0.023531,
            -0.546990, -0.525608, +0.196540,
            -0.541769, -0.524757, +0.274382,
            -0.536547, -0.456919, +0.236198,
            -0.532725, -0.340271, +0.092220,
            -0.531326, -0.206068, -0.118973,
            -0.532725, -0.090271, -0.340793,
            -0.536547, -0.023906, -0.513802,
            -0.541769, -0.024757, -0.591644,
            -0.546990, -0.092596, -0.553460,
            -0.550812, -0.209244, -0.409482,
            -0.500000, -0.346410, -0.200000,
            -0.500000, -0.462128, +0.021865,
            -0.500000, -0.528275, +0.195000,
            -0.500000, -0.527128, +0.273013,
            -0.500000, -0.458993, +0.235000,
            -0.500000, -0.342128, +0.091147,
            -0.500000, -0.207846, -0.120000,
            -0.500000, -0.092128, -0.341865,
            -0.500000, -0.025981, -0.515000,
            -0.500000, -0.027128, -0.593013,
            -0.500000, -0.095263, -0.555000,
            -0.500000, -0.212128, -0.411147,
            -0.447790, -0.343447, -0.198289,
            -0.449189, -0.459244, +0.023531,
            -0.453011, -0.525608, +0.196540,
            -0.458232, -0.524757, +0.274382,
            -0.463453, -0.456919, +0.236198,
            -0.467275, -0.340271, +0.092220,
            -0.468674, -0.206068, -0.118973,
            -0.467275, -0.090271, -0.340793,
            -0.463453, -0.023906, -0.513802,
            -0.458232, -0.024757, -0.591644,
            -0.453011, -0.092596, -0.553460,
            -0.449189, -0.209244, -0.409482,
            -0.396473, -0.334607, -0.193185,
            -0.399247, -0.450641, +0.028498,
            -0.406825, -0.517652, +0.201133,
            -0.417178, -0.517685, +0.278465,
            -0.427531, -0.450731, +0.239770,
            -0.435110, -0.334730, +0.095419,
            -0.437884, -0.200764, -0.115911,
            -0.435110, -0.084730, -0.337594,
            -0.427531, -0.017718, -0.510230,
            -0.417178, -0.017685, -0.587561,
            -0.406825, -0.084640, -0.548867,
            -0.399247, -0.200641, -0.404515,
            -0.346927, -0.320041, -0.184776,
            -0.351028, -0.436466, +0.036682,
            -0.362234, -0.504543, +0.208702,
            -0.377541, -0.506033, +0.285192,
            -0.392849, -0.440535, +0.245657,
            -0.404054, -0.325600, +0.100690,
            -0.408156, -0.192025, -0.110866,
            -0.404054, -0.075600, -0.332323,
            -0.392849, -0.007523, -0.504343,
            -0.377541, -0.006033, -0.580833,
            -0.362234, -0.071531, -0.541298,
            -0.351028, -0.186466, -0.396331,
            -0.300000, -0.300000, -0.173205,
            -0.305359, -0.416962, +0.047942,
            -0.320000, -0.486506, +0.219115,
            -0.340000, -0.490000, +0.294449,
            -0.360000, -0.426506, +0.253756,
            -0.374641, -0.313038, +0.107942,
            -0.380000, -0.180000, -0.103923,
            -0.374641, -0.063038, -0.325070,
            -0.360000, +0.006506, -0.496244,
            -0.340000, +0.010000, -0.571577,
            -0.320000, -0.053494, -0.530885,
            -0.305359, -0.166962, -0.385070,
            -0.256496, -0.274826, -0.158671,
            -0.263020, -0.392462, +0.062087,
            -0.280846, -0.463849, +0.232196,
            -0.305196, -0.469861, +0.306076,
            -0.329547, -0.408884, +0.263930,
            -0.347373, -0.297259, +0.117052,
            -0.353897, -0.164895, -0.095202,
            -0.347373, -0.047259, -0.315960,
            -0.329547, +0.024128, -0.486070,
            -0.305196, +0.030139, -0.559949,
            -0.280846, -0.030837, -0.517804,
            -0.263020, -0.142462, -0.370925,
            -0.217157, -0.244949, -0.141421,
            -0.224736, -0.363386, +0.078874,
            -0.245442, -0.436961, +0.247721,
            -0.273726, -0.445959, +0.319876,
            -0.302010, -0.387971, +0.276005,
            -0.322716, -0.278533, +0.127864,
            -0.330294, -0.146969, -0.084853,
            -0.322716, -0.028533, -0.305149,
            -0.302010, +0.045042, -0.473995,
            -0.273726, +0.054041, -0.546150,
            -0.245442, -0.003948, -0.502279,
            -0.224736, -0.113386, -0.354138,
            -0.182659, -0.210881, -0.121752,
            -0.191162, -0.330231, +0.098016,
            -0.214393, -0.406299, +0.265423,
            -0.246127, -0.418705, +0.335611,
            -0.277861, -0.364123, +0.289773,
            -0.301092, -0.257179, +0.140193,
            -0.309595, -0.126529, -0.073051,
            -0.301092, -0.007179, -0.292820,
            -0.277861, +0.068890, -0.460227,
            -0.246127, +0.081295, -0.530415,
            -0.214393, +0.026713, -0.484577,
            -0.191162, -0.080231, -0.334996,
            -0.153590, -0.173205, -0.100000,
            -0.162872, -0.293564, +0.119186,
            -0.188231, -0.372391, +0.285000,
            -0.222872, -0.388564, +0.353013,
            -0.257513, -0.337750, +0.305000,
            -0.282872, -0.233564, +0.153827,
            -0.292154, -0.103923, -0.060000,
            -0.282872, +0.016436, -0.279186,
            -0.257513, +0.095263, -0.445000,
            -0.222872, +0.111436, -0.513013,
            -0.188231, +0.060622, -0.465000,
            -0.162872, -0.043564, -0.313827,
            -0.130448, -0.132566, -0.076537,
            -0.140350, -0.254013, +0.142020,
            -0.167403, -0.335815, +0.306117,
            -0.204359, -0.356052, +0.371783,
            -0.241314, -0.309302, +0.321424,
            -0.268367, -0.208091, +0.168533,
            -0.278269, -0.079539, -0.045922,
            -0.268367, +0.041909, -0.264479,
            -0.241314, +0.123710, -0.428576,
            -0.204359, +0.143948, -0.494242,
            -0.167403, +0.097197, -0.443883,
            -0.140350, -0.004013, -0.290992,
            -0.113630, -0.089657, -0.051764,
            -0.123982, -0.212255, +0.166130,
            -0.152267, -0.297198, +0.328413,
            -0.190904, -0.321726, +0.391602,
            -0.229541, -0.279267, +0.338765,
            -0.257825, -0.181197, +0.184061,
            -0.268178, -0.053794, -0.031058,
            -0.257825, +0.068803, -0.248952,
            -0.229541, +0.153746, -0.411235,
            -0.190904, +0.178274, -0.474424,
            -0.152267, +0.135815, -0.421587,
            -0.123982, +0.037745, -0.266883,
            -0.103422, -0.045216, -0.026105,
            -0.114048, -0.169004, +0.191101,
            -0.143080, -0.257200, +0.351505,
            -0.182738, -0.286172, +0.412129,
            -0.222395, -0.248157, +0.356726,
            -0.251427, -0.153341, +0.200144,
            -0.262053, -0.027129, -0.015663,
            -0.251427, +0.096659, -0.232869,
            -0.222395, +0.184855, -0.393274,
            -0.182738, +0.213828, -0.453897,
            -0.143080, +0.175812, -0.398495,
            -0.114048, +0.080996, -0.241912,
            +0.860000, +0.000000, +0.000000,
            +0.849282, -0.125000, +0.216506,
            +0.820000, -0.216506, +0.375000,
            +0.780000, -0.250000, +0.433013,
            +0.740000, -0.216506, +0.375000,
            +0.710718, -0.125000, +0.216506,
            +0.700000, -0.000000, +0.000000,
            +0.710718, +0.125000, -0.216506,
            +0.740000, +0.216506, -0.375000,
            +0.780000, +0.250000, -0.433013,
            +0.820000, +0.216506, -0.375000,
            +0.849282, +0.125000, -0.216506,
            +0.856578, +0.045216, +0.026105,
            +0.845952, -0.080996, +0.241912,
            +0.816920, -0.175812, +0.398495,
            +0.777262, -0.213828, +0.453897,
            +0.737604, -0.184855, +0.393274,
            +0.708573, -0.096659, +0.232869,
            +0.697947, +0.027129, +0.015663,
            +0.708573, +0.153341, -0.200144,
            +0.737604, +0.248157, -0.356726,
            +0.777262, +0.286172, -0.412129,
            +0.816920, +0.257200, -0.351505,
            +0.845952, +0.169004, -0.191101,
            +0.846370, +0.089658, +0.051764,
            +0.836018, -0.037745, +0.266883,
            +0.807733, -0.135815, +0.421587,
            +0.769096, -0.178274, +0.474424,
            +0.730459, -0.153746, +0.411235,
            +0.702175, -0.068803, +0.248952,
            +0.691822, +0.053795, +0.031058,
            +0.702175, +0.181197, -0.184061,
            +0.730459, +0.279267, -0.338765,
            +0.769096, +0.321726, -0.391602,
            +0.807733, +0.297198, -0.328413,
            +0.836018, +0.212255, -0.166130,
            +0.829552, +0.132565, +0.076537,
            +0.819650, +0.004013, +0.290992,
            +0.792597, -0.097197, +0.443883,
            +0.755641, -0.143948, +0.494242,
            +0.718686, -0.123711, +0.428576,
            +0.691633, -0.041909, +0.264479,
            +0.681731, +0.079539, +0.045922,
            +0.691633, +0.208091, -0.168534,
            +0.718686, +0.309302, -0.321424,
            +0.755641, +0.356052, -0.371783,
            +0.792597, +0.335815, -0.306117,
            +0.819650, +0.254013, -0.142020,
            +0.806410, +0.173205, +0.100000,
            +0.797128, +0.043564, +0.313827,
            +0.771769, -0.060622, +0.465000,
            +0.737128, -0.111436, +0.513013,
            +0.702487, -0.095263, +0.445000,
            +0.677128, -0.016436, +0.279186,
            +0.667846, +0.103923, +0.060000,
            +0.677128, +0.233564, -0.153827,
            +0.702487, +0.337750, -0.305000,
            +0.737128, +0.388564, -0.353013,
            +0.771769, +0.372391, -0.285000,
            +0.797128, +0.293564, -0.119186,
            +0.777341, +0.210881, +0.121752,
            +0.768838, +0.080231, +0.334996,
            +0.745607, -0.026713, +0.484577,
            +0.713873, -0.081295, +0.530415,
            +0.682139, -0.068890, +0.460227,
            +0.658908, +0.007179, +0.292820,
            +0.650405, +0.126529, +0.073051,
            +0.658908, +0.257179, -0.140193,
            +0.682139, +0.364123, -0.289773,