! Generated by BlenderFDS 5.0.0 on Blender 2.80 (sub 75)
! File: <.../validation/cube-vent/Blender_Input_Files/cube-vent.blend>
! Blender Scene: <Scene>
! Date: <Thu, 17 Oct 2019, 13:38:03>
&HEAD CHID='Scene' /
&TIME T_END=1.0 /

! --- Boundary conditions from Blender Materials
&SURF ID='Material'
      RGB=204,204,204
      TRANSPARENCY=1.00 /

! --- Geometric namelists from Blender Collection <Collection>
! XB: 6 faces
&VENT ID='Cube_0'
      XB=-1.000000,-1.000000,-1.000000,1.000000,-1.000000,1.000000
      SURF_ID='INERT' /
&VENT ID='Cube_1'
      XB=-1.000000,1.000000,-1.000000,-1.000000,-1.000000,1.000000
      SURF_ID='INERT' /
&VENT ID='Cube_2'
      XB=-1.000000,1.000000,-1.000000,1.000000,-1.000000,-1.000000
      SURF_ID='INERT' /
&VENT ID='Cube_3'
      XB=-1.000000,1.000000,-1.000000,1.000000,1.000000,1.000000
      SURF_ID='INERT' /
&VENT ID='Cube_4'
      XB=-1.000000,1.000000,1.000000,1.000000,-1.000000,1.000000
      SURF_ID='INERT' /
&VENT ID='Cube_5'
      XB=1.000000,1.000000,-1.000000,1.000000,-1.000000,1.000000
      SURF_ID='INERT' /

&TAIL /