! Generated by BlenderFDS 5.0.0 on Blender 2.80 (sub 75)
! File: <C:\Users\rupol\OneDrive\Desktop\tjunction.blend>
! Blender Scene: <Scene>
! Date: <Fri, 04 Oct 2019, 17:30:34>
&HEAD CHID='Scene' /
&TIME T_END=1.0 /

! --- Boundary conditions from Blender Materials
&SURF ID='Material' RGB=204,204,204 TRANSPARENCY=1.00 /

! --- Geometric namelists from Blender Collection <Collection>
! XB: 84 voxels, resolution 0.005 m, in 0.865 s
&OBST ID='T-Junction_0'
      XB=1.409990,1.500010,0.894990,1.005010,-0.050010,-0.044990 /
&OBST ID='T-Junction_1'
      XB=1.384990,1.500010,0.894990,1.005010,0.044990,0.050010 /
&OBST ID='T-Junction_2'
      XB=1.354990,1.500010,0.879990,1.020010,0.014990,0.020010 /
&OBST ID='T-Junction_3'
      XB=1.354990,1.500010,0.879990,1.020010,-0.020010,-0.014990 /
&OBST ID='T-Junction_4'
      XB=1.304990,1.410010,0.894990,1.010010,-0.050010,-0.044990 /
&OBST ID='T-Junction_5'
      XB=1.179990,1.500010,0.919990,0.980010,-0.070010,-0.064990 /
&OBST ID='T-Junction_6'
      XB=1.154990,1.355010,0.879990,1.025010,-0.020010,-0.014990 /
&OBST ID='T-Junction_7'
      XB=1.084990,1.180010,0.914990,0.980010,-0.070010,-0.064990 /
&OBST ID='T-Junction_8'
      XB=0.994990,1.500010,0.919990,0.980010,0.064990,0.070010 /
&OBST ID='T-Junction_9'
      XB=0.929990,1.500010,0.899990,1.000010,-0.060010,-0.054990 /
&OBST ID='T-Junction_10'
      XB=0.914990,1.500010,0.929990,0.970010,-0.075010,-0.069990 /
&OBST ID='T-Junction_11'
      XB=0.909990,1.155010,0.874990,1.025010,-0.020010,-0.014990 /
&OBST ID='T-Junction_12'
      XB=0.904990,1.500010,0.884990,1.015010,0.029990,0.035010 /
&OBST ID='T-Junction_13'
      XB=0.839990,0.915010,0.929990,0.965010,-0.075010,-0.069990 /
&OBST ID='T-Junction_14'
      XB=0.649990,0.910010,0.879990,1.025010,-0.020010,-0.014990 /
&OBST ID='T-Junction_15'
      XB=0.649990,0.840010,0.934990,0.965010,-0.075010,-0.069990 /
&OBST ID='T-Junction_16'
      XB=0.574990,0.650010,0.929990,0.965010,-0.075010,-0.069990 /
&OBST ID='T-Junction_17'
      XB=0.564990,0.930010,0.899990,0.995010,-0.060010,-0.054990 /
&OBST ID='T-Junction_18'
      XB=0.514990,1.355010,0.879990,1.025010,0.014990,0.020010 /
&OBST ID='T-Junction_19'
      XB=0.489990,1.385010,0.894990,1.010010,0.044990,0.050010 /
&OBST ID='T-Junction_20'
      XB=0.454990,0.905010,0.884990,1.020010,0.029990,0.035010 /
&OBST ID='T-Junction_21'
      XB=0.109990,0.490010,0.889990,1.010010,0.044990,0.050010 /
&OBST ID='T-Junction_22'
      XB=0.099990,0.515010,0.874990,1.025010,0.014990,0.020010 /
&OBST ID='T-Junction_23'
      XB=0.099990,1.500010,0.874990,1.025010,-0.015010,0.015010 /
&OBST ID='T-Junction_24'
      XB=0.099990,0.650010,0.874990,1.025010,-0.020010,-0.014990 /
&OBST ID='T-Junction_25'
      XB=0.094990,1.500010,0.884990,1.015010,0.034990,0.040010 /
&OBST ID='T-Junction_26'
      XB=0.094990,0.455010,0.884990,1.015010,0.029990,0.035010 /
&OBST ID='T-Junction_27'
      XB=0.094990,1.500010,0.879990,1.020010,0.019990,0.030010 /
&OBST ID='T-Junction_28'
      XB=0.094990,1.500010,0.879990,1.020010,-0.030010,-0.019990 /
&OBST ID='T-Junction_29'
      XB=0.094990,1.500010,0.884990,1.015010,-0.035010,-0.029990 /
&OBST ID='T-Junction_30'
      XB=0.089990,0.110010,0.894990,1.010010,0.044990,0.050010 /
&OBST ID='T-Junction_31'
      XB=0.089990,1.500010,0.889990,1.010010,0.039990,0.045010 /
&OBST ID='T-Junction_32'
      XB=0.089990,0.095010,0.689990,2.785010,0.034990,0.040010 /
&OBST ID='T-Junction_33'
      XB=0.089990,0.095010,1.594990,2.810010,-0.040010,-0.034990 /
&OBST ID='T-Junction_34'
      XB=0.089990,1.500010,0.884990,1.015010,-0.040010,-0.034990 /
&OBST ID='T-Junction_35'
      XB=0.089990,1.500010,0.889990,1.010010,-0.045010,-0.039990 /
&OBST ID='T-Junction_36'
      XB=0.089990,1.305010,0.889990,1.010010,-0.050010,-0.044990 /
&OBST ID='T-Junction_37'
      XB=0.084990,1.500010,0.894990,1.005010,0.049990,0.055010 /
&OBST ID='T-Junction_38'
      XB=0.084990,0.090010,-0.000010,2.025010,0.044990,0.050010 /
&OBST ID='T-Junction_39'
      XB=0.084990,0.090010,-0.000010,2.100010,-0.050010,-0.044990 /
&OBST ID='T-Junction_40'
      XB=0.084990,1.500010,0.894990,1.005010,-0.055010,-0.049990 /
&OBST ID='T-Junction_41'
      XB=0.079990,1.500010,0.909990,0.990010,0.059990,0.065010 /
&OBST ID='T-Junction_42'
      XB=0.079990,1.500010,0.899990,1.000010,0.054990,0.060010 /
&OBST ID='T-Junction_43'
      XB=0.079990,0.565010,0.899990,1.000010,-0.060010,-0.054990 /
&OBST ID='T-Junction_44'
      XB=0.079990,1.500010,0.909990,0.990010,-0.065010,-0.059990 /
&OBST ID='T-Junction_45'
      XB=0.074990,0.995010,0.919990,0.985010,0.064990,0.070010 /
&OBST ID='T-Junction_46'
      XB=0.074990,0.080010,0.214990,2.475010,0.059990,0.065010 /
&OBST ID='T-Junction_47'
      XB=0.074990,0.080010,-0.000010,2.440010,-0.065010,-0.059990 /
&OBST ID='T-Junction_48'
      XB=0.074990,1.085010,0.919990,0.980010,-0.070010,-0.064990 /
&OBST ID='T-Junction_49'
      XB=0.069990,1.500010,0.929990,0.970010,0.069990,0.075010 /
&OBST ID='T-Junction_50'
      XB=0.069990,0.575010,0.929990,0.970010,-0.075010,-0.069990 /
&OBST ID='T-Junction_51'
      XB=0.059990,0.065010,0.384990,1.775010,0.074990,0.080010 /
&OBST ID='T-Junction_52'
      XB=0.059990,0.065010,-0.000010,0.675010,-0.080010,-0.074990 /
&OBST ID='T-Junction_53'
      XB=0.044990,0.050010,0.994990,3.000010,0.084990,0.090010 /
&OBST ID='T-Junction_54'
      XB=0.044990,0.050010,0.954990,3.000010,-0.090010,-0.084990 /
&OBST ID='T-Junction_55'
      XB=0.044990,0.050010,-0.000010,0.015010,-0.090010,-0.084990 /
&OBST ID='T-Junction_56'
      XB=-0.020010,0.020010,-0.000010,3.000010,0.094990,0.100010 /
&OBST ID='T-Junction_57'
      XB=-0.020010,0.020010,-0.000010,3.000010,-0.100010,-0.094990 /
&OBST ID='T-Junction_58'
      XB=-0.035010,0.035010,-0.000010,3.000010,0.089990,0.095010 /
&OBST ID='T-Junction_59'
      XB=-0.035010,0.035010,-0.000010,3.000010,-0.095010,-0.089990 /
&OBST ID='T-Junction_60'
      XB=-0.045010,0.045010,-0.000010,3.000010,0.084990,0.090010 /
&OBST ID='T-Junction_61'
      XB=-0.050010,-0.044990,1.204990,3.000010,0.084990,0.090010 /
&OBST ID='T-Junction_62'
      XB=-0.050010,0.045010,-0.000010,3.000010,-0.090010,-0.084990 /
&OBST ID='T-Junction_63'
      XB=-0.055010,0.055010,-0.000010,3.000010,0.079990,0.085010 /
&OBST ID='T-Junction_64'
      XB=-0.055010,0.055010,-0.000010,3.000010,-0.085010,-0.079990 /
&OBST ID='T-Junction_65'
      XB=-0.060010,0.060010,-0.000010,3.000010,0.074990,0.080010 /
&OBST ID='T-Junction_66'
      XB=-0.060010,0.060010,-0.000010,3.000010,-0.080010,-0.074990 /
&OBST ID='T-Junction_67'
      XB=-0.065010,-0.059990,-0.000010,2.920010,0.074990,0.080010 /
&OBST ID='T-Junction_68'
      XB=-0.065010,-0.059990,2.144990,2.765010,-0.080010,-0.074990 /
&OBST ID='T-Junction_69'
      XB=-0.070010,0.070010,-0.000010,3.000010,0.069990,0.075010 /
&OBST ID='T-Junction_70'
      XB=-0.070010,0.070010,-0.000010,3.000010,-0.075010,-0.069990 /
&OBST ID='T-Junction_71'
      XB=-0.075010,0.075010,-0.000010,3.000010,0.059990,0.070010 /
&OBST ID='T-Junction_72'
      XB=-0.075010,0.075010,-0.000010,3.000010,-0.070010,-0.059990 /
&OBST ID='T-Junction_73'
      XB=-0.080010,-0.074990,-0.000010,1.960010,0.059990,0.065010 /
&OBST ID='T-Junction_74'
      XB=-0.080010,0.080010,-0.000010,3.000010,0.054990,0.060010 /
&OBST ID='T-Junction_75'
      XB=-0.080010,0.080010,-0.000010,3.000010,-0.060010,-0.054990 /
&OBST ID='T-Junction_76'
      XB=-0.085010,0.085010,-0.000010,3.000010,0.044990,0.055010 /
&OBST ID='T-Junction_77'
      XB=-0.085010,0.085010,-0.000010,3.000010,-0.055010,-0.044990 /
&OBST ID='T-Junction_78'
      XB=-0.090010,0.090010,-0.000010,3.000010,0.034990,0.045010 /
&OBST ID='T-Junction_79'
      XB=-0.090010,0.090010,-0.000010,3.000010,-0.045010,-0.034990 /
&OBST ID='T-Junction_80'
      XB=-0.095010,-0.089990,0.714990,2.640010,0.034990,0.040010 /
&OBST ID='T-Junction_81'
      XB=-0.095010,0.095010,-0.000010,3.000010,0.019990,0.035010 /
&OBST ID='T-Junction_82'
      XB=-0.095010,0.095010,-0.000010,3.000010,-0.035010,-0.019990 /
&OBST ID='T-Junction_83'
      XB=-0.100010,0.100010,-0.000010,3.000010,-0.020010,0.020010 /
&OBST ID='T-Junction_voxels_tmp'
      XB=-0.101000,1.502000,-0.001000,3.002000,-0.101000,0.102000 /

&TAIL /